#------------------------------------------------------
# After the Orca calculation you will get two inter-
# action energies at the end of the output file. The
# difference is the negative BSSE.
#
# The script will set the orbital guess PModel for 
# jobs 2-5 since Orca will try to use the .gbw-files of
# the earlier calculations which does not work for jobs
# 2 and 3 and does not help for jobs 4 and 5.
#------------------------------------------------------
#
#-------------------------
#     First the dimer
#-------------------------

%id "dimer"
! DLPNO-CCSD(T) aug-cc-pVTZ aug-cc-pVTZ/C TightPNO
%maxcore 2000
%pal
nprocs 24
end

* xyz 0 1
H     1.949787    -3.682083     4.133091 
O     1.777261    -4.137274     4.986214 
H     2.353667    -3.666162     5.611390 
H     4.385483    -2.524424     5.618700 
O     4.112587    -3.186434     6.295074 
H     4.491239    -4.035007     5.958003 
H     4.965008    -2.151161     3.559849 
O     4.967531    -1.486181     4.280155 
H     4.170765    -0.913959     4.117225 
H     2.044189    -0.824010     5.279337 
O     1.497809    -1.375590     5.866505 
H     1.497512    -0.951838     6.742220 
H     5.715844    -5.452747     4.594842 
O     5.184847    -5.512574     5.423870 
H     4.406015    -6.041099     5.184590 
H     4.655797    -0.352761     7.575577 
O     4.244265     0.295077     6.982695 
H     4.993621     0.760250     6.572560 
H     7.070080    -2.549325     6.704825 
O     7.337563    -3.151538     5.995593 
H     6.666500    -3.842216     6.014070 
O     5.605254    -1.946656     8.091996 
H     4.972111    -2.506624     7.564340 
H     5.548538    -2.263240     8.997549 
*

#--------------------------
#   Now the fragments at
#      dimer-geometry 
#-------------------------

$new_job
%id "fragment"
%scf guess PModel end
! DLPNO-CCSD(T) aug-cc-pVTZ aug-cc-pVTZ/C TightPNO
%maxcore 2000
%pal
nprocs 24
end

* xyz 0 1
H     1.949787    -3.682083     4.133091 
O     1.777261    -4.137274     4.986214 
H     2.353667    -3.666162     5.611390 
H     4.385483    -2.524424     5.618700 
O     4.112587    -3.186434     6.295074 
H     4.491239    -4.035007     5.958003 
H     4.965008    -2.151161     3.559849 
O     4.967531    -1.486181     4.280155 
H     4.170765    -0.913959     4.117225 
H     2.044189    -0.824010     5.279337 
O     1.497809    -1.375590     5.866505 
H     1.497512    -0.951838     6.742220 
H     5.715844    -5.452747     4.594842 
O     5.184847    -5.512574     5.423870 
H     4.406015    -6.041099     5.184590 
H     4.655797    -0.352761     7.575577 
O     4.244265     0.295077     6.982695 
H     4.993621     0.760250     6.572560 
H     7.070080    -2.549325     6.704825 
O     7.337563    -3.151538     5.995593 
H     6.666500    -3.842216     6.014070 
*

$new_job
%id "fragment"
%scf guess PModel end
! DLPNO-CCSD(T) aug-cc-pVTZ aug-cc-pVTZ/C TightPNO
%maxcore 2000
%pal
nprocs 6
end

* xyz 0 1
O     5.605254    -1.946656     8.091996 
H     4.972111    -2.506624     7.564340 
H     5.548538    -2.263240     8.997549 
*

#--------------------------
#   Now the fragments at
#   dimer-geometry with  
#     the dimer-basis
#-------------------------

$new_job
%id "ghost"
%scf guess PModel end
! DLPNO-CCSD(T) aug-cc-pVTZ aug-cc-pVTZ/C TightPNO
%maxcore 2000
%pal
nprocs 24
end

* xyz 0 1
H          1.949787    -3.682083     4.133091 
O          1.777261    -4.137274     4.986214 
H          2.353667    -3.666162     5.611390 
H          4.385483    -2.524424     5.618700 
O          4.112587    -3.186434     6.295074 
H          4.491239    -4.035007     5.958003 
H          4.965008    -2.151161     3.559849 
O          4.967531    -1.486181     4.280155 
H          4.170765    -0.913959     4.117225 
H          2.044189    -0.824010     5.279337 
O          1.497809    -1.375590     5.866505 
H          1.497512    -0.951838     6.742220 
H          5.715844    -5.452747     4.594842 
O          5.184847    -5.512574     5.423870 
H          4.406015    -6.041099     5.184590 
H          4.655797    -0.352761     7.575577 
O          4.244265     0.295077     6.982695 
H          4.993621     0.760250     6.572560 
H          7.070080    -2.549325     6.704825 
O          7.337563    -3.151538     5.995593 
H          6.666500    -3.842216     6.014070 
O :        5.605254    -1.946656     8.091996 
H :        4.972111    -2.506624     7.564340 
H :        5.548538    -2.263240     8.997549 
*

$new_job
%id "ghost"
%scf guess PModel end
! DLPNO-CCSD(T) aug-cc-pVTZ aug-cc-pVTZ/C TightPNO
%maxcore 2000
%pal
nprocs 6
end

* xyz 0 1
H :        1.949787    -3.682083     4.133091 
O :        1.777261    -4.137274     4.986214 
H :        2.353667    -3.666162     5.611390 
H :        4.385483    -2.524424     5.618700 
O :        4.112587    -3.186434     6.295074 
H :        4.491239    -4.035007     5.958003 
H :        4.965008    -2.151161     3.559849 
O :        4.967531    -1.486181     4.280155 
H :        4.170765    -0.913959     4.117225 
H :        2.044189    -0.824010     5.279337 
O :        1.497809    -1.375590     5.866505 
H :        1.497512    -0.951838     6.742220 
H :        5.715844    -5.452747     4.594842 
O :        5.184847    -5.512574     5.423870 
H :        4.406015    -6.041099     5.184590 
H :        4.655797    -0.352761     7.575577 
O :        4.244265     0.295077     6.982695 
H :        4.993621     0.760250     6.572560 
H :        7.070080    -2.549325     6.704825 
O :        7.337563    -3.151538     5.995593 
H :        6.666500    -3.842216     6.014070 
O          5.605254    -1.946656     8.091996 
H          4.972111    -2.506624     7.564340 
H          5.548538    -2.263240     8.997549 
*

