!QM/XTB2 B97-3c Opt
!NumFreq
%pal
nprocs 24
end
%qmmm
QMAtoms {141 142 143 174 175 176 228 229 230 252 253 254 258 259 260 276 277 278 462 463 464 600 601 602 } end 
ActiveAtoms {141 142 143 174 175 176 228 229 230 252 253 254 258 259 260 276 277 278 462 463 464 600 601 602 } end 
ExtendActiveRegion no
end
%geom
MaxIter 500
end
*xyzfile 0 1 xtbopt.xyz 

