600
new_deformation46 // -1589.182804027663 // -40.611719832 // -611.453344829663 // -1018.34117903 // -0.0352444047 // -0.579660263804 // -0.009222851033
 H    -1.773055    -0.074939     2.485398
 O    -0.795275    -0.051350     2.565324
 H    -0.523202    -0.943785     2.884626
 H    -0.407538    -1.829137    -2.864251
 O    -0.482200    -1.851567    -1.897475
 H    -1.429410    -1.755424    -1.703798
 H    -2.726393     1.838888     0.875949
 O    -2.633131     1.201036     0.148448
 H    -1.846314     1.484135    -0.351968
 H    -3.721571     1.969582    -2.993666
 O    -3.206069     2.317119    -3.758582
 H    -2.301546     2.443936    -3.453739
 H    -0.105346    -0.613161    -0.794760
 O     0.022962     0.113343    -0.154554
 H    -0.405003    -0.175997     0.661861
 H     0.942650    -1.887754    -4.792985
 O     0.003990    -2.065946    -4.616239
 H    -0.091205    -3.029544    -4.658400
 H    -4.921434     2.438968    -1.247295
 O    -4.559446     1.612700    -1.622638
 H    -3.884442     1.328836    -0.961330
 H    -3.524459     3.379475     2.529194
 O    -2.805534     2.757423     2.305643
 H    -2.031227     3.095626     2.792100
 H     2.561407     0.275525    -2.929530
 O     1.953020    -0.356161    -2.494385
 H     1.051581    -0.041565    -2.698833
 H    -1.132619     0.357278    -3.584217
 O    -0.324352     0.831745    -3.299433
 H    -0.569189     1.426744    -2.571693
 H     2.676865    -0.590300     0.574875
 O     2.577749    -1.333621    -0.054993
 H     2.317605    -0.945889    -0.912312
 H    -2.847260    -0.442810    -0.581880
 O    -2.986793    -0.901893    -1.420852
 H    -3.794776    -1.441428    -1.347250
 H     2.833858     1.251081    -0.785028
 O     2.016969     1.767715    -0.666078
 H     1.298718     1.122696    -0.494558
 H     0.591365     3.205659    -3.209312
 O     1.508816     3.015618    -2.973404
 H     1.509685     2.550404    -2.117085
 H     0.105567    -3.980199    -0.559414
 O    -0.137052    -4.661674    -1.226924
 H    -0.919268    -5.111547    -0.838566
 H    -6.224746     2.167085     3.041840
 O    -6.281135     2.364983     4.013296
 H    -7.034798     1.840713     4.348733
 H     1.125693    -3.728816     1.293407
 O     0.713382    -3.076947     0.697149
 H     1.397235    -2.421845     0.447688
 H    -2.858610     5.254476    -0.957948
 O    -2.682928     4.453929    -0.428547
 H    -3.573116     4.091798    -0.237295
 H    -5.509730    -1.236336     1.691807
 O    -5.233215    -0.599736     0.998634
 H    -5.344420    -1.055044     0.158727
 H    -0.353453    -3.206738     3.034831
 O    -0.039845    -2.400565     3.477330
 H     0.905252    -2.305269     3.272848
 H     5.261500     1.006256    -1.149152
 O     4.471776     0.482123    -0.953063
 H     4.699615     0.062962    -0.092959
 H     0.754581     2.393779     1.074709
 O     0.744564     2.053029     1.978470
 H     0.129444     1.298686     2.026052
 H     4.452529    -0.512140    -2.319347
 O     4.648401    -0.996984    -3.152852
 H     5.135861    -0.354609    -3.709444
 H     3.078047     3.250119    -0.970379
 O     3.959082     3.646179    -0.947137
 H     4.441821     3.353152    -1.743757
 H    -5.881381    -1.444527    -1.894295
 O    -5.357271    -2.150172    -1.456243
 H    -5.276325    -2.864497    -2.111644
 H    -4.934706    -4.029478     1.235788
 O    -5.618687    -3.393761     0.954862
 H    -5.386547    -3.107165     0.061266
 H     2.734133     2.152729    -3.642703
 O     3.402903     1.468296    -3.850158
 H     3.473682     1.432790    -4.809692
 H    -5.122627     3.879474     3.768287
 O    -4.547195     4.464756     3.264556
 H    -4.016841     4.992145     3.899596
 H     0.654049     1.027212    -4.712928
 O     1.143361     0.910796    -5.553082
 H     1.744029     0.152542    -5.396441
 H     1.079126     5.797503    -2.249359
 O     1.869605     5.463696    -1.791746
 H     2.420204     5.014554    -2.463422
 H    -2.806011    -3.448024    -1.793812
 O    -2.952731    -3.708999    -0.868245
 H    -3.726060    -4.289679    -0.842410
 H     2.126404     5.177633    -4.502976
 O     1.251693     5.274359    -4.918099
 H     1.234958     4.579986    -5.603963
 H     7.790014     1.795943    -0.889322
 O     6.998889     1.442607    -1.335966
 H     7.353475     0.757088    -1.938226
 H     4.531803     2.751118     0.365364
 O     4.862883     2.387510     1.211640
 H     4.796689     3.135088     1.841423
 H     1.049506    -3.169149    -2.187938
 O     1.909053    -3.020430    -2.607306
 H     2.003635    -2.045414    -2.635164
 H     1.226001     4.604674    -0.562192
 O     0.764599     4.134148     0.168677
 H     0.091256     4.747048     0.514324
 H    -5.729176     1.029795     1.257801
 O    -6.209460     1.859721     1.451231
 H    -7.143683     1.630333     1.213283
 H    -2.285215    -2.626638     0.254885
 O    -1.804997    -2.062525     0.890677
 H    -0.897648    -2.410097     0.885202
 H    -3.672480    -0.353937     4.278772
 O    -3.665557    -0.492266     5.253450
 H    -4.423434    -1.066714     5.506659
 H    -6.074680    -2.852616     3.214446
 O    -5.624291    -1.996678     3.305798
 H    -4.673134    -2.229486     3.302901
 H    -2.855951    -0.368331    -2.992793
 O    -2.595179    -0.430968    -3.938610
 H    -2.442970    -1.398645    -4.020618
 H    -3.459755    -3.355063    -3.733534
 O    -2.598246    -2.981327    -3.484317
 H    -1.909035    -3.618144    -3.759732
 H     3.220169    -1.161243    -4.269002
 O     2.665980    -1.271144    -5.065349
 H     3.297016    -1.442020    -5.783197
 H     4.697715     2.346745    -6.599243
 O     4.161610     1.527809    -6.617075
 H     3.325742     1.770036    -7.024111
 H    -4.167425     0.943404     5.798227
 O    -4.644379     1.770454     6.064800
 H    -5.207372     2.001549     5.298412
 H    -3.942436    -0.090066     2.009847
 O    -3.401719     0.214956     2.758296
 H    -3.311969     1.186692     2.682478
 H    -5.788265     0.623751    -2.231443
 O    -6.335065    -0.035366    -2.707123
 H    -5.908997    -0.127702    -3.581318
 H     1.873876    -3.807236    -4.155602
 O     1.805362    -4.255360    -5.020624
 H     1.421502    -5.127914    -4.825639
 H     4.459734    -3.591989    -0.675563
 O     4.743184    -2.846164    -0.100773
 H     3.984459    -2.217097    -0.099835
 H    -0.216760     3.026965    -0.867489
 O    -0.968485     2.658721    -1.361569
 H    -1.678197     3.320619    -1.226849
 H     1.802843     4.369009     1.602477
 O     2.258345     4.494728     2.454877
 H     2.063421     3.702834     2.980107
 H     3.721537     1.136795     1.655775
 O     2.947169     0.561925     1.812262
 H     2.178570     1.150157     1.944198
 H     3.127046    -3.969035    -2.112773
 O     3.822717    -4.600108    -1.806590
 H     4.499661    -4.610592    -2.500891
 H     4.953966    -3.781644    -4.559345
 O     5.388025    -3.474886    -3.725636
 H     4.986466    -2.618454    -3.476243
 H    -1.032909     5.042313     2.167748
 O    -1.208982     5.604470     1.377320
 H    -1.847451     5.116593     0.795967
 H    -5.657386     3.207391     0.518769
 O    -5.203447     3.712315    -0.182553
 H    -5.648966     4.572436    -0.327832
 H     5.005629    -3.920778     2.883893
 O     4.252720    -3.727149     2.319178
 H     4.586091    -3.437721     1.439751
 H     5.841957    -1.344831     1.326574
 O     5.448934    -0.449562     1.326195
 H     6.237183     0.125526     1.376887
 H     1.572529    -6.622418    -3.188107
 O     1.361848    -6.841755    -4.125554
 H     2.242524    -6.958400    -4.523981
 H    -7.219540    -3.584422     0.761071
 O    -8.187272    -3.572107     0.560840
 H    -8.645109    -3.384119     1.409148
 H     3.228686    -2.477539     2.777475
 O     2.547159    -1.806360     2.972312
 H     2.774562    -0.997950     2.478364
 H    -1.886214     2.643735     5.131479
 O    -2.599502     3.290283     5.286543
 H    -3.342637     2.787358     5.670167
 H    -0.794943     0.867585     4.007121
 O    -0.670009     1.411336     4.817012
 H     0.172026     1.860882     4.687009
 H     0.290453     3.504729    -6.888533
 O     1.243815     3.299808    -6.769662
 H     1.255442     2.444312    -6.299625
 H     7.144471    -2.943169     4.670859
 O     6.386430    -3.385177     4.219705
 H     5.583082    -3.030710     4.669020
 H     8.014081     1.420619     1.402011
 O     7.924062     0.490662     1.683090
 H     8.405980    -0.062367     1.039949
 H    -4.085686    -0.425769    -4.655430
 O    -5.015183    -0.457894    -4.989859
 H    -5.001407    -0.074736    -5.888360
 H     6.440624    -1.435210    -2.196009
 O     6.849511    -1.898324    -1.459917
 H     6.118180    -2.178772    -0.877790
 H     4.713103    -0.900177     4.421035
 O     5.128235    -0.153712     3.957451
 H     5.074476    -0.309849     2.990419
 H     0.014683     3.279894     2.920246
 O    -0.609706     3.934787     3.292268
 H    -0.296699     4.184428     4.183235
 H     8.242008    -1.253308    -0.742575
 O     9.032847    -0.887582    -0.287738
 H     9.727228    -1.555326    -0.372678
 H     9.600118    -3.873602     2.088936
 O     9.303164    -3.673338     1.175012
 H     10.068273    -3.510077     0.612703
 H    -2.402499    -2.621655     3.831253
 O    -3.026381    -2.700874     3.099569
 H    -2.569956    -2.364930     2.287254
 H    -2.155488     0.849765    -6.261540
 O    -2.780061     1.601154    -6.293127
 H    -3.029981     1.777695    -5.362330
 H    -1.207954     3.902448    -5.463624
 O    -1.332249     3.877808    -6.440913
 H    -1.926609     3.120978    -6.590589
 H    -4.630083    -6.198394    -1.203524
 O    -5.097575    -5.453859    -0.797969
 H    -5.866729    -5.267685    -1.379187
 H     2.614797    -5.782340    -1.531590
 O     1.804052    -6.330909    -1.465409
 H     1.059591    -5.667907    -1.370477
 H     3.263038    -4.212079    -5.688468
 O     4.223552    -4.203172    -5.955945
 H     4.338838    -3.462454    -6.556933
 H     7.513972     3.408040     2.074601
 O     7.427542     3.059808     1.178189
 H     6.495850     2.733755     1.124686
 H     6.621379    -3.887577     0.286359
 O     7.104931    -4.698729     0.058570
 H     7.994133    -4.545374     0.433555
 H    -7.515359    -4.354413    -2.490740
 O    -7.290417    -5.287066    -2.275557
 H    -7.913293    -5.560921    -1.575242
 H    -4.329508     6.762826     4.996635
 O    -3.445253     6.424481     4.759859
 H    -2.962282     6.208362     5.572130
 H     7.305774     3.475495     4.844158
 O     7.300172     3.082349     3.961663
 H     7.548860     2.146876     4.089009
 H    -5.775439     0.866722     6.957273
 O    -6.547612     0.326236     7.244502
 H    -6.277237    -0.595929     7.101318
 H    -0.490976    -4.818726    -2.951243
 O    -0.664976    -4.712925    -3.903823
 H    -1.260223    -5.420371    -4.183353
 H     6.730837     0.177405     4.320998
 O     7.701640     0.364824     4.277944
 H     7.913442     0.328291     3.318268
 H     4.751029    -6.636030    -3.940563
 O     4.067181    -6.777466    -4.628096
 H     4.220144    -6.096878    -5.291160
 H    -5.921115    -1.796009    -5.252943
 O    -6.541098    -2.556130    -5.369543
 H    -7.392357    -2.128392    -5.646637
 H    -7.642917     0.637856     6.036342
 O    -8.204102     0.978783     5.294491
 H    -8.811969     1.606253     5.689197
 H    -5.186831     5.758051     2.347735
 O    -5.419372     6.673699     2.091230
 H    -4.559743     7.143686     2.075912
 H     5.788813     1.622025    -4.001055
 O     6.022661     0.842682    -4.550592
 H     5.528777     0.942506    -5.366841
 H    -5.825424     6.491157     0.438320
 O    -5.854421     6.273230    -0.516779
 H    -4.964162     6.508869    -0.853703
 H    -0.291971    -7.657638    -3.339038
 O    -1.020126    -7.725450    -2.701096
 H    -0.644829    -8.116996    -1.899317
 H    -2.518850    -1.626811     5.512254
 O    -1.869638    -2.357955     5.646192
 H    -1.033557    -1.896421     5.847217
 H     7.505615    -4.508077    -1.601355
 O     7.626631    -4.482673    -2.574366
 H     6.850076    -4.006800    -2.915984
 H    -8.837494    -2.849118    -3.294170
 O    -7.915013    -2.776419    -2.957467
 H    -7.370929    -2.581684    -3.735830
 H     8.814278    -3.310603    -2.950550
 O     9.450372    -2.587509    -3.139511
 H     8.953077    -1.756499    -3.036644
 H    -5.110105    -4.896254    -3.618610
 O    -5.070218    -3.934933    -3.480495
 H    -5.588478    -3.533149    -4.188828
 H    -3.632757     4.068902    -3.489419
 O    -3.338296     4.918571    -3.123068
 H    -3.622596     5.622524    -3.707325
 H    -0.224240     4.788614    -4.008447
 O    -0.884253     4.098942    -3.815665
 H    -1.664517     4.545194    -3.429270
 H    -1.948543    -4.112886     5.328691
 O    -2.246598    -4.969292     4.983840
 H    -3.179761    -4.818127     4.752219
 H    -2.366136     8.435995    -3.679134
 O    -2.575084     7.486108    -3.791657
 H    -2.379224     7.255822    -4.726638
 H    -2.937607     7.307440     3.300258
 O    -2.865984     7.509745     2.352328
 H    -2.271737     6.819301     1.993757
 H     4.830479     1.505901     4.189682
 O     4.679001     2.462908     4.030337
 H     5.554283     2.821559     3.790326
 H     7.889537    -1.843889     6.217551
 O     8.328446    -2.038590     5.366602
 H     8.288504    -1.187517     4.887271
 H     6.037532    -1.597459     7.737589
 O     6.743729    -1.074609     7.345242
 H     6.287819    -0.317429     6.914425
 H    -1.718301     5.714929    -6.418022
 O    -1.848375     6.654709    -6.218093
 H    -0.975862     7.076609    -6.314042
 H    -8.180416    -0.178395     3.967243
 O    -8.000184    -0.710643     3.179496
 H    -7.097008    -1.062070     3.276148
 H    -8.511588     0.177722     0.217240
 O    -8.537304     0.812611     0.952210
 H    -8.510874     0.262891     1.753877
 H     0.849719    -0.589270     5.901261
 O     0.016886    -0.663291     6.423739
 H    -0.482570     0.115018     6.121210
 H    -0.429948     7.030877    -1.609665
 O    -0.391445     6.651014    -2.510341
 H    -1.246191     6.857281    -2.951326
 H     0.508747    -8.189942     0.584227
 O    -0.403824    -8.406992     0.307107
 H    -0.870653    -8.435209     1.174544
 H     2.043726     2.624756     5.255012
 O     2.049700     2.349388     4.313829
 H     2.990228     2.369656     4.058897
 H    -8.011282    -5.423143    -5.534345
 O    -7.114029    -5.283819    -5.879279
 H    -6.956240    -4.332268    -5.821748
 H     2.966184    -7.594562     1.008128
 O     2.070666    -7.233873     0.985858
 H     2.003148    -6.882716     0.052299
 H     3.340462     5.723128    -7.386934
 O     3.488158     4.761732    -7.514725
 H     2.657370     4.314545    -7.290654
 H    -0.478060     6.981091     0.559955
 O    -0.170122     7.688684    -0.031105
 H    -0.841912     8.383050     0.026407
 H     4.469447     3.597627     5.236460
 O     4.388024     4.241590     5.981032
 H     5.270770     4.297060     6.356567
 H     7.676341     2.720884     6.807761
 O     7.152150     3.562664     6.738814
 H     7.644419     4.217893     7.232071
 H     4.103329    -7.980646    -1.178268
 O     4.608380    -7.517131    -0.483256
 H     5.058626    -6.826256    -1.006553
 H     6.683627    -5.971611    -2.738115
 O     5.909185    -6.559194    -2.684864
 H     6.234382    -7.476394    -2.626241
 H    -8.997584    -2.092412     3.010877
 O    -9.486441    -2.907473     2.769874
 H    -10.223578    -2.595527     2.217773
 H    -2.628726     8.754952     1.066226
 O    -2.487578     9.115939     0.175184
 H    -3.281466     9.682436     0.009942
 H     8.118545     0.565956     7.339933
 O     8.462247     1.264817     6.772857
 H     8.310255     0.944326     5.866891
 H    -2.324237     5.080707     7.702679
 O    -2.044424     5.302784     6.815778
 H    -2.241337     4.500902     6.245240
 H    -6.338300    -6.349820    -3.344989
 O    -5.671767    -6.548899    -4.027844
 H    -6.111601    -6.255540    -4.855255
 H     6.779294    -2.842370     2.650821
 O     6.901437    -2.575323     1.720855
 H     7.847007    -2.659395     1.529407
 H     2.361781     6.699307    -0.799275
 O     2.621762     7.434825    -0.200276
 H     1.780285     7.774498     0.128443
 H    -4.240979    -7.303047    -2.905930
 O    -3.663272    -7.364165    -2.135847
 H    -2.760996    -7.470157    -2.486476
 H     0.902361     6.735860    -5.595100
 O     0.733120     7.611112    -6.015362
 H     0.755760     8.239631    -5.264414
 H    -8.290980    -1.575482    -1.650639
 O    -8.579498    -1.310646    -0.763414
 H    -8.353040    -2.102831    -0.226147
 H    -3.238239     7.149808    -2.139375
 O    -3.335115     6.965669    -1.195311
 H    -3.027067     7.764148    -0.717337
 H     2.798394    -4.591580     2.291883
 O     1.881588    -4.931574     2.298100
 H     1.937521    -5.816669     1.881234
 H    -8.844689    -0.672741    -5.004687
 O    -8.761060    -1.246287    -5.801929
 H    -8.474053    -0.644425    -6.511338
 H     7.529090    -0.069714    -3.926935
 O     8.174638    -0.110438    -3.202513
 H     8.851541     0.551729    -3.401229
 H     4.254398     6.652566    -0.056151
 O     4.959093     6.014704    -0.252993
 H     4.494957     5.181076    -0.489606
 H    -7.964659     0.220074    -3.184194
 O    -8.862752     0.242400    -3.574607
 H    -9.465658     0.008975    -2.867402
 H     6.133901     3.783781    -3.274084
 O     5.654446     2.999607    -2.948843
 H     6.241496     2.566824    -2.284124
 H    -1.365729    -6.944841     0.056575
 O    -1.968956    -6.179535    -0.085626
 H    -2.559009    -6.471420    -0.795637
 H    -4.007070    -7.775950     0.968307
 O    -4.224495    -7.526490     1.869367
 H    -4.006358    -6.566045     1.938880
 H    -2.891735    -5.078584     1.156839
 O    -3.601556    -4.963383     1.807854
 H    -3.314933    -4.249506     2.414178
 H     5.232630    -6.260520     4.768576
 O     4.477794    -6.009961     4.232560
 H     4.771373    -6.099282     3.309744
 H    -9.616382    -6.126481    -3.899496
 O    -9.629746    -5.662762    -4.768089
 H    -10.275245    -6.125782    -5.302486
 H     6.246076    -5.712932     1.166338
 O     5.731228    -6.301644     1.755453
 H     5.272552    -6.887158     1.138689
 H    -1.402513    -6.755163     2.548287
 O    -1.551579    -7.715367     2.594658
 H    -2.512980    -7.831721     2.588148
 H    -10.109955    -3.954778    -4.469031
 O    -10.232166    -3.029769    -4.196656
 H    -9.998559    -2.477141    -4.954890
 H     0.499283     7.965445    -3.213426
 O     0.823412     8.800211    -3.611579
 H     1.726128     8.933650    -3.254668
 H    -9.158732    -7.887942    -2.524932
 O    -9.742112    -7.127638    -2.522466
 H    -9.619247    -6.698111    -1.656630
 H     2.093178     0.613234     4.577919
 O     2.183603    -0.240816     5.042047
 H     2.391233    -0.918734     4.364442
 H    -6.568181     0.462386    -7.570692
 O    -7.526328     0.553692    -7.440142
 H    -7.674911     1.455651    -7.153506
 H     6.242733     3.880672    -7.276186
 O     5.654154     3.818352    -6.523913
 H     4.810270     4.283513    -6.813725
 H    -5.279806     10.311569     0.712026
 O    -4.789940     10.332666    -0.120932
 H    -5.379668     9.855930    -0.737782
 H    -0.822566    -1.093420    -5.753383
 O    -0.985074    -0.433054    -6.461877
 H    -0.196149     0.140307    -6.409223
 H     4.728218    -0.445485    -6.949151
 O     4.805169    -1.380572    -6.731562
 H     5.651501    -1.489606    -6.262698
 H     2.533947    -8.845812    -2.814647
 O     3.497068    -8.925161    -2.804387
 H     3.756768    -8.340672    -3.538052
 H    -4.255459    -0.384875    -7.865088
 O    -4.759874     0.370228    -7.525824
 H    -4.075961     1.006135    -7.214179
 H     1.374611     3.695745     6.693366
 O     2.117407     3.095482     6.899524
 H     2.933785     3.614607     6.777863
 H    -11.356726    -2.577475     0.031677
 O    -10.933631    -1.949239     0.617202
 H    -10.200631    -1.558771     0.109353
 H    -7.391701     2.014359     7.632272
 O    -7.860407     2.857552     7.552528
 H    -7.975107     3.192898     8.441166
 H     6.141338    -9.085593    -1.201710
 O     6.221857    -9.208009    -2.152514
 H     5.323898    -9.409513    -2.457074
 H     6.634112     5.191410    -0.772149
 O     7.268947     4.524487    -1.053474
 H     7.457841     3.987726    -0.256797
 H    -5.372700    -2.841590     5.852613
 O    -5.381576    -2.080646     6.474014
 H    -4.754420    -2.339364     7.171411
 H     2.631313     1.438423     7.484790
 O     3.093367     0.592778     7.395161
 H     2.769680     0.211326     6.552028
 H    -2.708577    -2.858264     7.058589
 O    -3.195664    -2.991924     7.900266
 H    -2.571605    -2.669360     8.566688
 H     5.800747     1.978598     6.674669
 O     5.507441     1.107361     6.401923
 H     4.622278     0.960712     6.796348
 H     1.965508    -4.383816     4.117438
 O     2.448610    -4.327169     4.954358
 H     3.144745    -5.002408     4.867161
 H     10.410173    -2.781851    -1.813985
 O     10.908795    -2.794508    -0.951738
 H     11.837486    -2.774678    -1.176119
 H     3.923666     8.263674    -2.848278
 O     3.248287     8.841328    -2.471704
 H     3.073723     8.489291    -1.579755
 H    -8.198435    -6.421050     0.389779
 O    -8.842722    -5.993428    -0.197211
 H    -8.783313    -5.044994     0.075396
 H    -0.682349     9.685939    -3.212556
 O    -1.619199     9.856491    -2.998265
 H    -1.682680     9.973396    -2.047864
 H     4.137247     3.996585    -3.741820
 O     3.589889     4.787404    -3.762254
 H     4.156710     5.558003    -3.550549
 H     5.206413     6.563660    -1.933166
 O     5.135963     6.776620    -2.884138
 H     5.914631     6.415619    -3.327234
 H    -0.346747     5.169851     6.124838
 O     0.369143     4.688674     5.686335
 H     1.064389     5.328047     5.398223
 H     3.238598     5.531535     5.180746
 O     2.477106     5.978245     4.781762
 H     2.421368     5.650562     3.870115
 H    -7.130071     9.021735    -0.110841
 O    -6.842919     8.798410    -1.006000
 H    -6.616220     7.852126    -0.980669
 H    -1.326775    -5.035116     3.587926
 O    -0.882635    -4.953460     2.712965
 H     0.037937    -5.212300     2.809609
 H     4.233648    -2.185608     6.246508
 O     4.229958    -2.336290     5.277031
 H     3.513200    -2.980093     5.103906
 H     7.082864    -6.215794     3.161548
 O     7.463229    -5.855744     3.972993
 H     6.994614    -5.014119     4.126922
 H     9.012433    -4.894046     3.902696
 O     9.649624    -4.167339     3.768582
 H     9.387721    -3.466554     4.378173
 H     3.086660     7.937089    -8.014805
 O     3.088663     7.397856    -7.225292
 H     2.218078     7.552608    -6.784449
 H    -0.584862    -1.332555     8.129859
 O    -0.795305    -1.969413     8.827153
 H    -0.088058    -2.619983     8.799132
 H     8.386185     4.443210    -2.248329
 O     9.062032     4.466201    -2.974053
 H     9.790775     4.974775    -2.618234
 H     6.400440     4.664089    -5.148626
 O     6.726702     5.057059    -4.317559
 H     7.672957     4.892993    -4.233462
 H     10.653908     2.106694    -4.174153
 O     9.919238     2.001430    -3.571668
 H     9.543738     2.894771    -3.404950
 H     3.150979    -2.461684     7.900415
 O     3.986392    -1.955288     7.902730
 H     3.714811    -1.028178     7.982528
 H    -2.448960    -1.940184    -8.756233
 O    -2.854500    -1.609148    -7.955825
 H    -2.146038    -1.159086    -7.446473
 H     5.135833     5.360733     1.564580
 O     4.928297     4.804561     2.326084
 H     3.959410     4.835652     2.427676
 H    -3.797885    -6.278238    -4.805740
 O    -2.986832    -5.771228    -4.884454
 H    -3.210457    -4.992169    -5.418177
 H    -6.521301     6.191106     4.983661
 O    -6.081506     7.013659     4.699790
 H    -5.952296     6.931688     3.728829
 H    -7.422750     4.162415     6.199897
 O    -7.162500     4.592507     5.375651
 H    -6.922247     3.865302     4.778900
 H    -7.204219     9.527978     2.523478
 O    -6.961568     9.919644     1.659523
 H    -7.425342     10.756391     1.612362
 H    -5.993293    -6.919253     1.736974
 O    -6.604288    -6.286108     1.329536
 H    -6.066908    -5.844625     0.637657
 H    -3.775706    -4.700824     7.660794
 O    -4.015436    -5.542937     7.233674
 H    -3.226692    -5.818710     6.752499
 H     9.554031     0.774602    -0.558377
 O     9.608023     1.730593    -0.741112
 H     9.914137     1.798212    -1.651594
 H    -7.971512    -4.168650     3.308534
 O    -7.047223    -4.438221     3.307852
 H    -6.925737    -5.078093     2.577668
 H     1.069173    -2.320499     6.924093
 O     1.564862    -3.064744     7.282464
 H     1.773897    -3.635810     6.526651
 H    -3.471596    -2.857755    -6.793471
 O    -3.887455    -3.483276    -6.181812
 H    -4.835357    -3.345397    -6.261244
 H    -8.640369     8.414711     3.935725
 O    -7.846591     8.942280     4.035878
 H    -7.170756     8.343288     4.417575
 H     7.993027    -2.149638    -5.178863
 O     7.070463    -1.889991    -5.197198
 H     6.600640    -2.532068    -4.631256
 H    -4.896562    -4.898416     5.823292
 O    -4.941055    -4.314977     5.040478
 H    -5.708670    -4.558079     4.503177
