6
Coordinates from ORCA-job ch3oh E -115.673255083566
  C      -0.049548      0.664707     -0.000000
  O      -0.038924     -0.741601     -0.000000
  H      -1.095341      0.966340      0.000000
  H       0.873587     -1.048919      0.000000
  H       0.437897      1.073695      0.891733
  H       0.437897      1.073695     -0.891733
6
Coordinates from ORCA-job ch3oh E -115.673475529544
  C      -0.047611      0.663587     -0.000000
  O      -0.039270     -0.752955     -0.000000
  H      -1.090858      0.969390      0.000000
  H       0.874094     -1.055820      0.000000
  H       0.434606      1.081857      0.889982
  H       0.434606      1.081857     -0.889982
6
Coordinates from ORCA-job ch3oh E -115.673504672657
  C      -0.046481      0.662295     -0.000000
  O      -0.040802     -0.758008     -0.000000
  H      -1.088682      0.971124      0.000000
  H       0.874751     -1.055095      0.000000
  H       0.433391      1.083800      0.889078
  H       0.433391      1.083800     -0.889078
6
Coordinates from ORCA-job ch3oh E -115.673506880762
  C      -0.046366      0.661791     -0.000000
  O      -0.041491     -0.758811     -0.000000
  H      -1.088394      0.971761      0.000000
  H       0.875082     -1.053227      0.000000
  H       0.433368      1.083202      0.889140
  H       0.433368      1.083202     -0.889140
6
Coordinates from ORCA-job ch3oh E -115.673507306329
  C      -0.046459      0.661593     -0.000000
  O      -0.041776     -0.758947     -0.000000
  H      -1.088371      0.972192      0.000000
  H       0.875313     -1.051949      0.000000
  H       0.433430      1.082514      0.889299
  H       0.433430      1.082514     -0.889299
6
Coordinates from ORCA-job ch3oh E -115.673507335813
  C      -0.046524      0.661615     -0.000000
  O      -0.041765     -0.758918     -0.000000
  H      -1.088398      0.972314      0.000000
  H       0.875376     -1.051750      0.000000
  H       0.433439      1.082327      0.889362
  H       0.433439      1.082327     -0.889362
