!QM/XTB2 B97-3c tightopt
!NumFreq
%pal
nprocs 24
end
%qmmm
QMAtoms {84 85 86 126 127 128 129 130 131 189 190 191 345 346 347 456 457 458 459 460 461 555 556 557 } end 
ActiveAtoms {84 85 86 126 127 128 129 130 131 189 190 191 345 346 347 456 457 458 459 460 461 555 556 557 } end 
ExtendActiveRegion no
end
%geom
MaxIter 500
end
*xyzfile 0 1 cluster_inp.xyz 

