!QM/XTB2 B97-3c tightopt
!NumFreq
%pal
nprocs 28
end
%qmmm
QMAtoms {84 85 86 126 127 128 129 130 131 189 190 191 345 346 347 456 457 458 459 460 461 555 556 557 600 601 602 603 604 605 } end 
ActiveAtoms {84 85 86 126 127 128 129 130 131 189 190 191 345 346 347 456 457 458 459 460 461 555 556 557 600 601 602 603 604 605 } end 
ExtendActiveRegion no
end
%geom
MaxIter 500
end
*xyzfile 0 1 xtbopt.xyz 

