#------------------------------------------------------
# After the Orca calculation you will get two inter-
# action energies at the end of the output file. The
# difference is the negative BSSE.
#
# The script will set the orbital guess PModel for 
# jobs 2-5 since Orca will try to use the .gbw-files of
# the earlier calculations which does not work for jobs
# 2 and 3 and does not help for jobs 4 and 5.
#------------------------------------------------------
#
#-------------------------
#     First the dimer
#-------------------------

%id "dimer"
! DLPNO-CCSD(T) aug-cc-pVTZ aug-cc-pVTZ/C TightPNO
%maxcore 2000
%pal
nprocs 28
end

* xyz 0 1
H    -0.804062     6.340113     4.888402 
O    -1.378747     6.933561     5.445671 
H    -1.412110     7.795920     4.959173 
H    -1.908145     8.974657     3.345545 
O    -1.648145     9.297246     4.238129 
H    -2.511666     9.328457     4.717779 
H    -0.103643     5.827665     10.524840 
O    -0.828873     6.460308     10.542123 
H    -0.805058     6.863443     9.658288 
H    -3.483406     8.886433     6.595681 
O    -3.925177     8.866311     5.725402 
H    -4.083589     7.924209     5.541347 
H     0.579883     7.278753     7.496314 
O    -0.353610     7.304994     7.766540 
H    -0.807781     7.168631     6.867484 
H     0.437110     8.741559     4.172831 
O     1.092041     8.070323     3.953583 
H     1.295727     7.585341     4.777675 
C    -1.868207     10.737395     7.827669 
O    -2.262538     9.382700     8.014584 
H    -2.772424     11.338518     7.793177 
H    -1.462500     8.828674     7.980387 
H    -1.248826     11.091164     8.655671 
H    -1.324497     10.881085     6.891201 
*

#--------------------------
#   Now the fragments at
#      dimer-geometry 
#-------------------------

$new_job
%id "fragment"
%scf guess PModel end
! DLPNO-CCSD(T) aug-cc-pVTZ aug-cc-pVTZ/C TightPNO
%maxcore 2000
%pal
nprocs 28
end

* xyz 0 1
H    -0.804062     6.340113     4.888402 
O    -1.378747     6.933561     5.445671 
H    -1.412110     7.795920     4.959173 
H    -1.908145     8.974657     3.345545 
O    -1.648145     9.297246     4.238129 
H    -2.511666     9.328457     4.717779 
H    -0.103643     5.827665     10.524840 
O    -0.828873     6.460308     10.542123 
H    -0.805058     6.863443     9.658288 
H    -3.483406     8.886433     6.595681 
O    -3.925177     8.866311     5.725402 
H    -4.083589     7.924209     5.541347 
H     0.579883     7.278753     7.496314 
O    -0.353610     7.304994     7.766540 
H    -0.807781     7.168631     6.867484 
H     0.437110     8.741559     4.172831 
O     1.092041     8.070323     3.953583 
H     1.295727     7.585341     4.777675 
*

$new_job
%id "fragment"
%scf guess PModel end
! DLPNO-CCSD(T) aug-cc-pVTZ aug-cc-pVTZ/C TightPNO
%maxcore 2000
%pal
nprocs 6
end

* xyz 0 1
C    -1.868207     10.737395     7.827669 
O    -2.262538     9.382700     8.014584 
H    -2.772424     11.338518     7.793177 
H    -1.462500     8.828674     7.980387 
H    -1.248826     11.091164     8.655671 
H    -1.324497     10.881085     6.891201 
*

#--------------------------
#   Now the fragments at
#   dimer-geometry with  
#     the dimer-basis
#-------------------------

$new_job
%id "ghost"
%scf guess PModel end
! DLPNO-CCSD(T) aug-cc-pVTZ aug-cc-pVTZ/C TightPNO
%maxcore 2000
%pal
nprocs 28
end

* xyz 0 1
H         -0.804062     6.340113     4.888402 
O         -1.378747     6.933561     5.445671 
H         -1.412110     7.795920     4.959173 
H         -1.908145     8.974657     3.345545 
O         -1.648145     9.297246     4.238129 
H         -2.511666     9.328457     4.717779 
H         -0.103643     5.827665     10.524840 
O         -0.828873     6.460308     10.542123 
H         -0.805058     6.863443     9.658288 
H         -3.483406     8.886433     6.595681 
O         -3.925177     8.866311     5.725402 
H         -4.083589     7.924209     5.541347 
H          0.579883     7.278753     7.496314 
O         -0.353610     7.304994     7.766540 
H         -0.807781     7.168631     6.867484 
H          0.437110     8.741559     4.172831 
O          1.092041     8.070323     3.953583 
H          1.295727     7.585341     4.777675 
C :       -1.868207     10.737395     7.827669 
O :       -2.262538     9.382700     8.014584 
H :       -2.772424     11.338518     7.793177 
H :       -1.462500     8.828674     7.980387 
H :       -1.248826     11.091164     8.655671 
H :       -1.324497     10.881085     6.891201 
*

$new_job
%id "ghost"
%scf guess PModel end
! DLPNO-CCSD(T) aug-cc-pVTZ aug-cc-pVTZ/C TightPNO
%maxcore 2000
%pal
nprocs 6
end

* xyz 0 1
H :       -0.804062     6.340113     4.888402 
O :       -1.378747     6.933561     5.445671 
H :       -1.412110     7.795920     4.959173 
H :       -1.908145     8.974657     3.345545 
O :       -1.648145     9.297246     4.238129 
H :       -2.511666     9.328457     4.717779 
H :       -0.103643     5.827665     10.524840 
O :       -0.828873     6.460308     10.542123 
H :       -0.805058     6.863443     9.658288 
H :       -3.483406     8.886433     6.595681 
O :       -3.925177     8.866311     5.725402 
H :       -4.083589     7.924209     5.541347 
H :        0.579883     7.278753     7.496314 
O :       -0.353610     7.304994     7.766540 
H :       -0.807781     7.168631     6.867484 
H :        0.437110     8.741559     4.172831 
O :        1.092041     8.070323     3.953583 
H :        1.295727     7.585341     4.777675 
C         -1.868207     10.737395     7.827669 
O         -2.262538     9.382700     8.014584 
H         -2.772424     11.338518     7.793177 
H         -1.462500     8.828674     7.980387 
H         -1.248826     11.091164     8.655671 
H         -1.324497     10.881085     6.891201 
*

