600
deformation46 // -1589.178126663067 // -40.6121518009 // -611.451781943967 // -1018.33849652 // -0.0350546387 // -0.579592547552 // -0.009214948353
 H    -1.772320    -0.082226     2.485196
 O    -0.794522    -0.057855     2.564670
 H    -0.521399    -0.950768     2.881731
 H    -0.407861    -1.822491    -2.869271
 O    -0.481996    -1.847268    -1.902511
 H    -1.429200    -1.752519    -1.708116
 H    -2.728393     1.834433     0.880747
 O    -2.634879     1.198385     0.151700
 H    -1.848605     1.483439    -0.348458
 H    -3.725721     1.973234    -2.988032
 O    -3.210963     2.323079    -3.752397
 H    -2.306407     2.450076    -3.447727
 H    -0.105792    -0.611083    -0.797084
 O     0.022130     0.114040    -0.155239
 H    -0.405121    -0.177641     0.660716
 H     0.941377    -1.875236    -4.798839
 O     0.002986    -2.054774    -4.622024
 H    -0.091277    -3.018364    -4.666401
 H    -4.925136     2.437324    -1.239939
 O    -4.562526     1.612301    -1.617411
 H    -3.886896     1.327552    -0.957123
 H    -3.527121     3.370338     2.538023
 O    -2.807697     2.749526     2.312637
 H    -2.033471     3.087352     2.799485
 H     2.558964     0.285261    -2.931145
 O     1.951430    -0.348049    -2.497170
 H     1.049573    -0.033867    -2.700410
 H    -1.135482     0.364889    -3.583717
 O    -0.327538     0.839487    -3.298239
 H    -0.572583     1.432532    -2.568976
 H     2.677109    -0.588683     0.571154
 O     2.578400    -1.330620    -0.060408
 H     2.317425    -0.941132    -0.916678
 H    -2.847762    -0.443951    -0.582379
 O    -2.987279    -0.901199    -1.422355
 H    -3.794689    -1.441707    -1.349601
 H     2.831569     1.256043    -0.784498
 O     2.014231     1.771587    -0.663909
 H     1.296709     1.125454    -0.493532
 H     0.585875     3.214090    -3.203014
 O     1.503637     3.024404    -2.968031
 H     1.505415     2.557180    -2.112808
 H     0.108574    -3.978450    -0.569767
 O    -0.133719    -4.658620    -1.238770
 H    -0.915280    -5.110147    -0.851012
 H    -6.225938     2.154071     3.049222
 O    -6.282016     2.349628     4.021170
 H    -7.034983     1.823825     4.355766
 H     1.129422    -3.730415     1.283112
 O     0.716153    -3.077557     0.688603
 H     1.399227    -2.421192     0.440327
 H    -2.864950     5.254189    -0.945047
 O    -2.688199     4.452574    -0.417620
 H    -3.577928     4.089112    -0.226757
 H    -5.508258    -1.245458     1.690821
 O    -5.232735    -0.606957     0.999003
 H    -5.343928    -1.060400     0.158086
 H    -0.349331    -3.213899     3.026528
 O    -0.036290    -2.408457     3.470757
 H     0.908605    -2.311744     3.266009
 H     5.259261     1.014481    -1.150459
 O     4.470160     0.489107    -0.955192
 H     4.698862     0.068152    -0.096194
 H     0.752133     2.392306     1.079001
 O     0.742926     2.049422     1.981964
 H     0.128577     1.294360     2.028092
 H     4.451184    -0.501961    -2.323800
 O     4.647100    -0.984651    -3.158543
 H     5.133633    -0.340487    -3.713877
 H     3.073681     3.255752    -0.965276
 O     3.954336     3.652630    -0.941561
 H     4.436948     3.361955    -1.739119
 H    -5.881575    -1.445589    -1.895567
 O    -5.356538    -2.151741    -1.459448
 H    -5.275228    -2.864444    -2.116568
 H    -4.930707    -4.036949     1.227938
 O    -5.615464    -3.401252     0.948863
 H    -5.384074    -3.112327     0.055823
 H     2.729458     2.164305    -3.639993
 O     3.398798     1.481025    -3.849405
 H     3.469110     1.447845    -4.809056
 H    -5.125136     3.865839     3.779120
 O    -4.550547     4.452873     3.276467
 H    -4.020383     4.979294     3.912469
 H     0.649932     1.039246    -4.711780
 O     1.138919     0.925289    -5.552459
 H     1.740420     0.167266    -5.397914
 H     1.071572     5.804153    -2.237225
 O     1.862620     5.470054    -1.780809
 H     2.413312     5.023038    -2.453825
 H    -2.804171    -3.446266    -1.801393
 O    -2.950149    -3.709561    -0.876366
 H    -3.722889    -4.291067    -0.851494
 H     2.118286     5.190619    -4.492838
 O     1.243262     5.287453    -4.907277
 H     1.226857     4.594678    -5.594762
 H     7.787128     1.806062    -0.890088
 O     6.996120     1.452993    -1.337150
 H     7.351070     0.769243    -1.941204
 H     4.528628     2.755055     0.368533
 O     4.860511     2.389788     1.213781
 H     4.793905     3.135818     1.845353
 H     1.050862    -3.162644    -2.196867
 O     1.910042    -3.012087    -2.616331
 H     2.003644    -2.036916    -2.641947
 H     1.220508     4.607508    -0.552944
 O     0.759954     4.134808     0.177058
 H     0.086186     4.746226     0.524495
 H    -5.730173     1.021468     1.262257
 O    -6.211178     1.850461     1.457887
 H    -7.145297     1.620706     1.219886
 H    -2.283119    -2.629182     0.248958
 O    -1.803127    -2.066089     0.885825
 H    -0.895438    -2.412748     0.879061
 H    -3.670531    -0.367321     4.278898
 O    -3.662962    -0.507933     5.253243
 H    -4.420138    -1.083726     5.505496
 H    -6.070812    -2.865872     3.209950
 O    -5.621222    -2.009704     3.303080
 H    -4.669838    -2.241562     3.299140
 H    -2.857786    -0.363815    -2.993105
 O    -2.597447    -0.423971    -3.939202
 H    -2.444323    -1.391301    -4.023564
 H    -3.459020    -3.349395    -3.740551
 O    -2.597751    -2.975392    -3.490904
 H    -1.908054    -3.610877    -3.768173
 H     3.218449    -1.147702    -4.274334
 O     2.663953    -1.256280    -5.070649
 H     3.294782    -1.424843    -5.789224
 H     4.691302     2.367217    -6.597089
 O     4.156000     1.547793    -6.616568
 H     3.319680     1.790147    -7.022599
 H    -4.165967     0.925955     5.801655
 O    -4.643600     1.751903     6.070420
 H    -5.207222     1.984240     5.304870
 H    -3.941933    -0.098385     2.010739
 O    -3.401128     0.205413     2.759622
 H    -3.312379     1.177413     2.686042
 H    -5.790683     0.623567    -2.227900
 O    -6.337078    -0.034972    -2.704844
 H    -5.911376    -0.124830    -3.579475
 H     1.874835    -3.795288    -4.166454
 O     1.806308    -4.241444    -5.032499
 H     1.423431    -5.114833    -4.839349
 H     4.462299    -3.585659    -0.687264
 O     4.745308    -2.840904    -0.110869
 H     3.985961    -2.212593    -0.108059
 H    -0.220849     3.029091    -0.861198
 O    -0.972466     2.661264    -1.355751
 H    -1.682763     3.322140    -1.219106
 H     1.798715     4.367328     1.610865
 O     2.254537     4.491494     2.463322
 H     2.060671     3.698175     2.986790
 H     3.720635     1.136901     1.655568
 O     2.946919     0.560898     1.811105
 H     2.177806     1.148056     1.944823
 H     3.129233    -3.960642    -2.124662
 O     3.825680    -4.591745    -1.820326
 H     4.502278    -4.599925    -2.515001
 H     4.954687    -3.765693    -4.571737
 O     5.388878    -3.460465    -3.737535
 H     4.986601    -2.605020    -3.485921
 H    -1.037407     5.036490     2.179193
 O    -1.214450     5.600328     1.390179
 H    -1.852739     5.113187     0.808013
 H    -5.660926     3.200865     0.528309
 O    -5.207853     3.707886    -0.172060
 H    -5.654300     4.567904    -0.315085
 H     5.010375    -3.922269     2.871126
 O     4.256981    -3.728060     2.307258
 H     4.589605    -3.436234     1.428342
 H     5.843339    -1.341841     1.319431
 O     5.449430    -0.446963     1.321361
 H     6.237135     0.128785     1.372995
 H     1.602026    -6.645290    -3.227449
 O     1.372193    -6.803840    -4.172128
 H     2.244130    -6.966970    -4.576029
 H    -7.216228    -3.593044     0.755457
 O    -8.184076    -3.581218     0.555758
 H    -8.641656    -3.395678     1.404744
 H     3.231949    -2.480546     2.769024
 O     2.549859    -1.810502     2.965793
 H     2.776204    -1.000709     2.473628
 H    -1.886789     2.630108     5.137720
 O    -2.600636     3.275583     5.294674
 H    -3.343072     2.771021     5.677501
 H    -0.794348     0.857688     4.008622
 O    -0.669529     1.399658     4.819724
 H     0.171993     1.850343     4.690340
 H     0.282746     3.521507    -6.881365
 O     1.236373     3.317253    -6.763472
 H     1.249092     2.460666    -6.295453
 H     7.149181    -2.946742     4.659272
 O     6.391343    -3.388440     4.207475
 H     5.587880    -3.035826     4.658039
 H     8.012763     1.425576     1.400240
 O     7.923811     0.494873     1.679179
 H     8.405941    -0.056166     1.034489
 H    -4.088332    -0.418565    -4.655233
 O    -5.017972    -0.450825    -4.989253
 H    -5.005044    -0.065543    -5.886858
 H     6.440256    -1.423347    -2.203665
 O     6.849985    -1.887785    -1.468877
 H     6.119237    -2.170324    -0.887030
 H     4.715662    -0.905580     4.415515
 O     5.129812    -0.157617     3.953472
 H     5.075703    -0.311534     2.986104
 H     0.012323     3.273347     2.927000
 O    -0.612520     3.926744     3.300886
 H    -0.299296     4.174600     4.192274
 H     8.242217    -1.243076    -0.750744
 O     9.032932    -0.877636    -0.295460
 H     9.727928    -1.544490    -0.382331
 H     9.604399    -3.868670     2.073892
 O     9.306770    -3.666553     1.160596
 H     10.071424    -3.501212     0.598275
 H    -2.398540    -2.632720     3.825389
 O    -3.022725    -2.710838     3.093845
 H    -2.567057    -2.372534     2.282084
 H    -2.160238     0.862654    -6.259343
 O    -2.785571     1.613495    -6.288839
 H    -3.035178     1.787600    -5.357500
 H    -1.215309     3.914390    -5.454747
 O    -1.340090     3.891924    -6.432026
 H    -1.933779     3.134859    -6.583172
 H    -4.625211    -6.199814    -1.216637
 O    -5.093227    -5.456708    -0.809076
 H    -5.862868    -5.269930    -1.389455
 H     2.639621    -5.798110    -1.581092
 O     1.810689    -6.319796    -1.507296
 H     1.093422    -5.632620    -1.411591
 H     3.263597    -4.195149    -5.700988
 O     4.223961    -4.184661    -5.968944
 H     4.338200    -3.442419    -6.568250
 H     7.511038     3.410914     2.077760
 O     7.424484     3.064704     1.180577
 H     6.493088     2.737854     1.126792
 H     6.624735    -3.881361     0.272837
 O     7.108971    -4.691496     0.042890
 H     7.998216    -4.538141     0.417772
 H    -7.512983    -4.355684    -2.498000
 O    -7.287005    -5.288616    -2.285128
 H    -7.909244    -5.564734    -1.585135
 H    -4.334231     6.747080     5.013830
 O    -3.449764     6.410170     4.775799
 H    -2.966156     6.192622     5.587308
 H     7.304219     3.471653     4.847576
 O     7.298546     3.080577     3.964162
 H     7.548227     2.145054     4.089179
 H    -5.773299     0.844954     6.961354
 O    -6.544786     0.303030     7.247712
 H    -6.273573    -0.618528     7.102221
 H    -0.488385    -4.811949    -2.963246
 O    -0.662987    -4.704082    -3.915485
 H    -1.257679    -5.411459    -4.196367
 H     6.732275     0.174234     4.316963
 O     7.702870     0.362716     4.273845
 H     7.914206     0.328648     3.313976
 H     4.754906    -6.621728    -3.959567
 O     4.070826    -6.762223    -4.647066
 H     4.222779    -6.079930    -5.308613
 H    -5.922716    -1.789216    -5.255011
 O    -6.542006    -2.549674    -5.373075
 H    -7.393833    -2.122130    -5.648720
 H    -7.641029     0.616402     6.040858
 O    -8.202940     0.958515     5.300103
 H    -8.811222     1.584453     5.696599
 H    -5.191942     5.747685     2.363021
 O    -5.425523     6.663702     2.108791
 H    -4.566368     7.134576     2.094131
 H     5.784475     1.637474    -4.001180
 O     6.018807     0.859657    -4.552669
 H     5.524399     0.960909    -5.368425
 H    -5.832257     6.484643     0.455667
 O    -5.861537     6.268932    -0.499927
 H    -4.971688     6.506245    -0.836759
 H    -0.303595    -7.510611    -3.466882
 O    -1.012894    -7.696146    -2.825065
 H    -0.554159    -7.821330    -1.983784
 H    -2.514997    -1.641946     5.508784
 O    -1.864992    -2.372759     5.640665
 H    -1.029263    -1.910870     5.842340
 H     7.508598    -4.496546    -1.616790
 O     7.629076    -4.468730    -2.589821
 H     6.851878    -3.992831    -2.929896
 H    -8.837026    -2.849816    -3.297203
 O    -7.914443    -2.776994    -2.960809
 H    -7.370958    -2.579891    -3.738995
 H     8.815371    -3.294607    -2.963847
 O     9.450650    -2.570441    -3.151438
 H     8.952586    -1.740169    -3.046360
 H    -5.107782    -4.892488    -3.628392
 O    -5.068775    -3.931455    -3.488038
 H    -5.587803    -3.528521    -4.195155
 H    -3.639245     4.073800    -3.478895
 O    -3.345433     4.922898    -3.110700
 H    -3.630736     5.627940    -3.693154
 H    -0.231713     4.798109    -3.998002
 O    -0.890943     4.107332    -3.806499
 H    -1.671446     4.551901    -3.418650
 H    -1.942325    -4.127015     5.319081
 O    -2.239712    -4.982904     4.972372
 H    -3.173145    -4.832120     4.741593
 H    -2.377048     8.442581    -3.659002
 O    -2.585114     7.492754    -3.773649
 H    -2.389514     7.264861    -4.709270
 H    -2.943755     7.297060     3.318014
 O    -2.872828     7.501662     2.370525
 H    -2.278084     6.812653     2.010023
 H     4.830534     1.501150     4.189758
 O     4.678026     2.458378     4.032742
 H     5.552826     2.818461     3.793120
 H     7.893966    -1.850362     6.208156
 O     8.332624    -2.042628     5.356524
 H     8.291588    -1.190470     4.879216
 H     6.042512    -1.609341     7.729732
 O     6.747986    -1.084871     7.338248
 H     6.291102    -0.327132     6.909449
 H    -1.727949     5.728603    -6.404616
 O    -1.858850     6.667781    -6.202410
 H    -0.986805     7.090770    -6.297821
 H    -8.178800    -0.195516     3.970126
 O    -7.998453    -0.725732     3.181037
 H    -7.094880    -1.076490     3.276392
 H    -8.512284     0.169085     0.221143
 O    -8.538245     0.802219     0.957617
 H    -8.510851     0.250643     1.757976
 H     0.852746    -0.601983     5.898477
 O     0.020259    -0.678057     6.421213
 H    -0.480125     0.100465     6.120774
 H    -0.438389     7.034523    -1.593849
 O    -0.399980     6.656817    -2.495435
 H    -1.255160     6.863271    -2.935490
 H     0.591033    -8.126928     0.625738
 O    -0.304205    -8.412774     0.335657
 H    -0.789076    -8.456696     1.191449
 H     2.043231     2.614735     5.259164
 O     2.048987     2.341586     4.317334
 H     2.989361     2.363385     4.061961
 H    -8.009437    -5.417748    -5.543852
 O    -7.112503    -5.276725    -5.888924
 H    -6.955626    -4.325155    -5.829238
 H     3.010657    -7.534393     0.912357
 O     2.101401    -7.201832     0.932570
 H     2.005798    -6.849808    -0.001343
 H     3.330296     5.744093    -7.376136
 O     3.478877     4.783148    -7.506263
 H     2.648650     4.334612    -7.282812
 H    -0.485318     6.979590     0.575673
 O    -0.178389     7.688875    -0.013882
 H    -0.850837     8.382438     0.045611
 H     4.467978     3.590051     5.241638
 O     4.386307     4.232181     5.987764
 H     5.269193     4.287644     6.362969
 H     7.676559     2.712797     6.809206
 O     7.151499     3.554217     6.742511
 H     7.643376     4.208773     7.237051
 H     4.135734    -8.029372    -1.160970
 O     4.609124    -7.511359    -0.468388
 H     5.051117    -6.828880    -1.007533
 H     6.687488    -5.958241    -2.756504
 O     5.913550    -6.546673    -2.704294
 H     6.239789    -7.463702    -2.647999
 H    -8.994573    -2.108089     3.009688
 O    -9.482748    -2.923066     2.767024
 H    -10.220482    -2.610554     2.216042
 H    -2.637475     8.750123     1.087230
 O    -2.497150     9.113344     0.196966
 H    -3.291684     9.679440     0.033469
 H     8.121175     0.557064     7.336081
 O     8.463888     1.257596     6.770470
 H     8.311740     0.939085     5.863833
 H    -2.325882     5.060596     7.714869
 O    -2.046752     5.285034     6.828347
 H    -2.243169     4.484299     6.256028
 H    -6.334395    -6.347909    -3.357550
 O    -5.668021    -6.544722    -4.041218
 H    -6.108578    -6.249855    -4.867708
 H     6.782850    -2.841559     2.639667
 O     6.904243    -2.572205     1.710268
 H     7.849796    -2.654890     1.518131
 H     2.354090     6.703817    -0.785692
 O     2.613655     7.438182    -0.185102
 H     1.772015     7.776248     0.144853
 H    -4.235899    -7.300064    -2.921824
 O    -3.657731    -7.362494    -2.152156
 H    -2.755538    -7.466693    -2.503550
 H     0.892130     6.750194    -5.580658
 O     0.721803     7.626263    -5.998774
 H     0.744213     8.253038    -5.246362
 H    -8.290916    -1.579505    -1.650966
 O    -8.579232    -1.317041    -0.762971
 H    -8.351710    -2.110261    -0.227686
 H    -3.247072     7.151915    -2.121817
 O    -3.343273     6.965461    -1.178139
 H    -3.035766     7.763119    -0.698449
 H     2.803497    -4.593865     2.278689
 O     1.887030    -4.934782     2.284582
 H     1.943626    -5.818838     1.865609
 H    -8.847270    -0.669433    -5.002595
 O    -8.763490    -1.241021    -5.801227
 H    -8.477449    -0.637208    -6.509367
 H     7.526465    -0.052708    -3.931942
 O     8.172431    -0.094495    -3.207953
 H     8.848574     0.568808    -3.405465
 H     4.247140     6.657206    -0.043664
 O     4.952364     6.020508    -0.242372
 H     4.488930     5.186978    -0.480702
 H    -7.967174     0.219974    -3.180466
 O    -8.865492     0.242327    -3.570358
 H    -9.467798     0.006642    -2.863390
 H     6.127802     3.797857    -3.269309
 O     5.649294     3.012446    -2.945663
 H     6.237119     2.578684    -2.282269
 H    -1.355698    -6.973199     0.070425
 O    -1.954882    -6.213608    -0.100103
 H    -2.558850    -6.524171    -0.790441
 H    -3.999501    -7.781861     0.951169
 O    -4.216703    -7.534734     1.852926
 H    -3.999480    -6.574240     1.924583
 H    -2.886739    -5.083841     1.145461
 O    -3.596334    -4.970874     1.797114
 H    -3.310102    -4.258140     2.404966
 H     5.240677    -6.266207     4.750184
 O     4.485313    -6.015138     4.215152
 H     4.778501    -6.102002     3.291977
 H    -9.612985    -6.126517    -3.909826
 O    -9.627262    -5.660772    -4.777320
 H    -10.272581    -6.123175    -5.312468
 H     6.251690    -5.709143     1.148717
 O     5.737793    -6.299784     1.736704
 H     5.279313    -6.884235     1.118819
 H    -1.395126    -6.762209     2.532195
 O    -1.543228    -7.722660     2.576368
 H    -2.504510    -7.839963     2.570097
 H    -10.109005    -3.953973    -4.473998
 O    -10.231990    -3.029728    -4.199386
 H    -9.999327    -2.475087    -4.956439
 H     0.489079     7.973778    -3.195892
 O     0.812173     8.809799    -3.592250
 H     1.714942     8.943293    -3.235495
 H    -9.152874    -7.890749    -2.539645
 O    -9.737005    -7.131033    -2.535088
 H    -9.614113    -6.703420    -1.668309
 H     2.094322     0.604861     4.577319
 O     2.185835    -0.250188     5.039391
 H     2.393782    -0.926306     4.360086
 H    -6.573228     0.473978    -7.567107
 O    -7.531396     0.564027    -7.435845
 H    -7.680722     1.465162    -7.147013
 H     6.234448     3.904261    -7.271229
 O     5.646324     3.839590    -6.518797
 H     4.801828     4.304593    -6.807077
 H    -5.290279     10.304940     0.738069
 O    -4.800870     10.328480    -0.095092
 H    -5.390448     9.852610    -0.712754
 H    -0.825127    -1.080398    -5.756448
 O    -0.988658    -0.418530    -6.463304
 H    -0.200274     0.155487    -6.409712
 H     4.724388    -0.424153    -6.953576
 O     4.802378    -1.359672    -6.738226
 H     5.649063    -1.468968    -6.270060
 H     2.586263    -9.334238    -2.399556
 O     3.522697    -9.015590    -2.546732
 H     3.486212    -8.419507    -3.307769
 H    -4.259822    -0.370296    -7.864697
 O    -4.764807     0.383507    -7.523397
 H    -4.081362     1.019358    -7.210613
 H     1.373808     3.681677     6.700380
 O     2.117306     3.081668     6.904740
 H     2.933106     3.601887     6.783875
 H    -11.354789    -2.588487     0.030584
 O    -10.932011    -1.961210     0.617363
 H    -10.199663    -1.568823     0.110052
 H    -7.390343     1.989399     7.639889
 O    -7.859926     2.832312     7.562371
 H    -7.974493     3.165455     8.451855
 H     6.149057    -9.076304    -1.227202
 O     6.229173    -9.196503    -2.178189
 H     5.331341    -9.398105    -2.483040
 H     6.627926     5.200097    -0.764333
 O     7.263274     4.534466    -1.047554
 H     7.453115     3.996022    -0.252240
 H    -5.367465    -2.860349     5.847770
 O    -5.376770    -2.100878     6.470963
 H    -4.748994    -2.360612     7.167424
 H     2.633158     1.423748     7.485842
 O     3.096002     0.578774     7.393984
 H     2.772253     0.198984     6.550126
 H    -2.702698    -2.877217     7.052318
 O    -3.189212    -3.013338     7.893932
 H    -2.565124    -2.691722     8.560785
 H     5.801632     1.968967     6.675345
 O     5.509046     1.098083     6.400704
 H     4.624235     0.949631     6.795243
 H     1.971359    -4.391219     4.105159
 O     2.454842    -4.336060     4.941958
 H     3.151599    -5.010401     4.852813
 H     10.411334    -2.766947    -1.826872
 O     10.910419    -2.781135    -0.964916
 H     11.838973    -2.759857    -1.189733
 H     3.913356     8.274543    -2.831824
 O     3.237602     8.850641    -2.453542
 H     3.063852     8.496335    -1.562332
 H    -8.192507    -6.429761     0.378007
 O    -8.837524    -6.001399    -0.207641
 H    -8.778911    -5.053550     0.067164
 H    -0.694256     9.693093    -3.190363
 O    -1.631161     9.862213    -2.975184
 H    -1.694262     9.976821    -2.024478
 H     4.130694     4.009779    -3.735506
 O     3.582543     4.800102    -3.753796
 H     4.148711     5.570762    -3.540575
 H     5.198262     6.573656    -1.921378
 O     5.127105     6.788779    -2.871810
 H     5.905899     6.429594    -3.316158
 H    -0.349305     5.155408     6.136213
 O     0.366831     4.675973     5.696209
 H     1.061293     5.316710     5.409239
 H     3.235187     5.522864     5.191110
 O     2.473045     5.969755     4.793573
 H     2.417154     5.644160     3.881188
 H    -7.139696     9.015210    -0.086865
 O    -6.852790     8.794274    -0.982696
 H    -6.625141     7.848158    -0.959707
 H    -1.320553    -5.044536     3.575830
 O    -0.876952    -4.960383     2.700834
 H     0.043926    -5.218536     2.796386
 H     4.238433    -2.195773     6.238211
 O     4.234386    -2.344179     5.268384
 H     3.518175    -2.988283     5.094119
 H     7.090026    -6.215870     3.142305
 O     7.470459    -5.857351     3.954396
 H     7.001091    -5.016555     4.110546
 H     9.018673    -4.893956     3.885554
 O     9.655074    -4.166304     3.752817
 H     9.392795    -3.467214     4.364190
 H     3.073974     7.959272    -7.998669
 O     3.076923     7.418187    -7.210426
 H     2.206416     7.571040    -6.768768
 H    -0.579935    -1.351925     8.126068
 O    -0.789383    -1.990629     8.821972
 H    -0.081507    -2.640429     8.792054
 H     8.379967     4.457105    -2.243178
 O     9.055412     4.482472    -2.969197
 H     9.783837     4.990930    -2.612563
 H     6.392490     4.682831    -5.141915
 O     6.718797     5.074170    -4.310096
 H     7.665258     4.910845    -4.226878
 H     10.648997     2.127371    -4.175668
 O     9.914746     2.019964    -3.573050
 H     9.538448     2.912537    -3.404037
 H     3.156902    -2.476808     7.892027
 O     3.991814    -1.969591     7.895098
 H     3.719357    -1.042941     7.977217
 H    -2.452249    -1.921715    -8.760435
 O    -2.857699    -1.592963    -7.959040
 H    -2.149417    -1.143396    -7.449000
 H     5.130701     5.362442     1.573567
 O     4.924113     4.804276     2.333869
 H     3.955249     4.834168     2.436037
 H    -3.794815    -6.270376    -4.819449
 O    -2.984306    -5.762378    -4.897393
 H    -3.208980    -4.982289    -5.429167
 H    -6.525462     6.173220     5.000651
 O    -6.086630     6.996873     4.718486
 H    -5.957847     6.917313     3.747268
 H    -7.424267     4.140784     6.212584
 O    -7.164874     4.573070     5.389216
 H    -6.924213     3.847508     4.790632
 H    -7.212969     9.515187     2.548674
 O    -6.971158     9.909122     1.685517
 H    -7.435784     10.745518     1.640564
 H    -5.986170    -6.928942     1.722880
 O    -6.598004    -6.295447     1.317249
 H    -6.061423    -5.851807     0.626131
 H    -3.767687    -4.722245     7.650745
 O    -4.006806    -5.563589     7.221772
 H    -3.218041    -5.837448     6.739540
 H     9.552328     0.785696    -0.562462
 O     9.605277     1.742166    -0.742978
 H     9.910849     1.812228    -1.653457
 H    -7.966290    -4.184003     3.301930
 O    -7.041735    -4.452655     3.300134
 H    -6.919997    -5.090688     2.568385
 H     1.074447    -2.335393     6.917122
 O     1.571060    -3.079986     7.273485
 H     1.780266    -3.649067     6.516223
 H    -3.472951    -2.844909    -6.799304
 O    -3.887871    -3.472278    -6.188900
 H    -4.835950    -3.335152    -6.267516
 H    -8.647278     8.397180     3.959047
 O    -7.853971     8.925299     4.060028
 H    -7.177344     8.326082     4.439964
 H     7.991807    -2.129224    -5.188997
 O     7.068977    -1.870449    -5.206242
 H     6.600086    -2.514320    -4.641567
 H    -4.889306    -4.916628     5.813367
 O    -4.934785    -4.331396     5.031950
 H    -5.702440    -4.573995     4.494477
