#------------------------------------------------------
# After the Orca calculation you will get two inter-
# action energies at the end of the output file. The
# difference is the negative BSSE.
#
# The script will set the orbital guess PModel for 
# jobs 2-5 since Orca will try to use the .gbw-files of
# the earlier calculations which does not work for jobs
# 2 and 3 and does not help for jobs 4 and 5.
#------------------------------------------------------
#
#-------------------------
#     First the dimer
#-------------------------

%id "dimer"
! DLPNO-CCSD(T) aug-cc-pVTZ aug-cc-pVTZ/C TightPNO
%maxcore 2000
%pal
nprocs 24
end

* xyz 0 1
H     0.391949    -3.317476    -4.063161 
O     1.296960    -3.058803    -4.337863 
H     1.189238    -2.429247    -5.067851 
H    -1.549127    -0.824046    -4.507469 
O    -1.025714    -0.642019    -5.313231 
H    -0.348056    -0.003518    -5.024863 
H     2.243736    -4.636255    -6.794103 
O     2.089702    -5.073894    -5.946862 
H     1.792765    -4.349585    -5.343095 
H     3.347702    -2.623525    -8.494349 
O     3.244860    -3.112393    -7.656713 
H     4.140686    -3.098972    -7.264682 
H     3.197332    -0.942297    -5.577649 
O     2.352537    -1.120134    -6.056423 
H     2.584882    -1.860878    -6.664366 
H     1.817536    -0.163729    -7.478120 
O     1.349103     0.253338    -8.231844 
H     1.327176    -0.443478    -8.908223 
H     4.979964    -1.411410    -9.335950 
O     4.035994    -1.153625    -9.492029 
H     3.950221    -1.072320    -10.445059 
H    -2.852999    -3.979955    -6.094915 
O    -2.064013    -4.518984    -5.905577 
H    -1.787290    -4.246468    -4.999070 
H    -0.437480     0.447868    -7.998563 
O    -1.382865     0.653247    -7.829830 
H    -1.563769     0.198241    -6.992196 
H    -0.780581    -3.427894    -6.759168 
O    -0.148399    -2.712146    -6.945719 
H    -0.511693    -1.957472    -6.441322 
O     0.759477    -2.177936    -9.478327 
H     0.348828    -2.422848    -8.616798 
H     0.031677    -2.184519    -10.105218 
*

#--------------------------
#   Now the fragments at
#      dimer-geometry 
#-------------------------

$new_job
%id "fragment"
%scf guess PModel end
! DLPNO-CCSD(T) aug-cc-pVTZ aug-cc-pVTZ/C TightPNO
%maxcore 2000
%pal
nprocs 24
end

* xyz 0 1
H     0.391949    -3.317476    -4.063161 
O     1.296960    -3.058803    -4.337863 
H     1.189238    -2.429247    -5.067851 
H    -1.549127    -0.824046    -4.507469 
O    -1.025714    -0.642019    -5.313231 
H    -0.348056    -0.003518    -5.024863 
H     2.243736    -4.636255    -6.794103 
O     2.089702    -5.073894    -5.946862 
H     1.792765    -4.349585    -5.343095 
H     3.347702    -2.623525    -8.494349 
O     3.244860    -3.112393    -7.656713 
H     4.140686    -3.098972    -7.264682 
H     3.197332    -0.942297    -5.577649 
O     2.352537    -1.120134    -6.056423 
H     2.584882    -1.860878    -6.664366 
H     1.817536    -0.163729    -7.478120 
O     1.349103     0.253338    -8.231844 
H     1.327176    -0.443478    -8.908223 
H     4.979964    -1.411410    -9.335950 
O     4.035994    -1.153625    -9.492029 
H     3.950221    -1.072320    -10.445059 
H    -2.852999    -3.979955    -6.094915 
O    -2.064013    -4.518984    -5.905577 
H    -1.787290    -4.246468    -4.999070 
H    -0.437480     0.447868    -7.998563 
O    -1.382865     0.653247    -7.829830 
H    -1.563769     0.198241    -6.992196 
H    -0.780581    -3.427894    -6.759168 
O    -0.148399    -2.712146    -6.945719 
H    -0.511693    -1.957472    -6.441322 
*

$new_job
%id "fragment"
%scf guess PModel end
! DLPNO-CCSD(T) aug-cc-pVTZ aug-cc-pVTZ/C TightPNO
%maxcore 2000
%pal
nprocs 6
end

* xyz 0 1
O     0.759477    -2.177936    -9.478327 
H     0.348828    -2.422848    -8.616798 
H     0.031677    -2.184519    -10.105218 
*

#--------------------------
#   Now the fragments at
#   dimer-geometry with  
#     the dimer-basis
#-------------------------

$new_job
%id "ghost"
%scf guess PModel end
! DLPNO-CCSD(T) aug-cc-pVTZ aug-cc-pVTZ/C TightPNO
%maxcore 2000
%pal
nprocs 24
end

* xyz 0 1
H          0.391949    -3.317476    -4.063161 
O          1.296960    -3.058803    -4.337863 
H          1.189238    -2.429247    -5.067851 
H         -1.549127    -0.824046    -4.507469 
O         -1.025714    -0.642019    -5.313231 
H         -0.348056    -0.003518    -5.024863 
H          2.243736    -4.636255    -6.794103 
O          2.089702    -5.073894    -5.946862 
H          1.792765    -4.349585    -5.343095 
H          3.347702    -2.623525    -8.494349 
O          3.244860    -3.112393    -7.656713 
H          4.140686    -3.098972    -7.264682 
H          3.197332    -0.942297    -5.577649 
O          2.352537    -1.120134    -6.056423 
H          2.584882    -1.860878    -6.664366 
H          1.817536    -0.163729    -7.478120 
O          1.349103     0.253338    -8.231844 
H          1.327176    -0.443478    -8.908223 
H          4.979964    -1.411410    -9.335950 
O          4.035994    -1.153625    -9.492029 
H          3.950221    -1.072320    -10.445059 
H         -2.852999    -3.979955    -6.094915 
O         -2.064013    -4.518984    -5.905577 
H         -1.787290    -4.246468    -4.999070 
H         -0.437480     0.447868    -7.998563 
O         -1.382865     0.653247    -7.829830 
H         -1.563769     0.198241    -6.992196 
H         -0.780581    -3.427894    -6.759168 
O         -0.148399    -2.712146    -6.945719 
H         -0.511693    -1.957472    -6.441322 
O :        0.759477    -2.177936    -9.478327 
H :        0.348828    -2.422848    -8.616798 
H :        0.031677    -2.184519    -10.105218 
*

$new_job
%id "ghost"
%scf guess PModel end
! DLPNO-CCSD(T) aug-cc-pVTZ aug-cc-pVTZ/C TightPNO
%maxcore 2000
%pal
nprocs 6
end

* xyz 0 1
H :        0.391949    -3.317476    -4.063161 
O :        1.296960    -3.058803    -4.337863 
H :        1.189238    -2.429247    -5.067851 
H :       -1.549127    -0.824046    -4.507469 
O :       -1.025714    -0.642019    -5.313231 
H :       -0.348056    -0.003518    -5.024863 
H :        2.243736    -4.636255    -6.794103 
O :        2.089702    -5.073894    -5.946862 
H :        1.792765    -4.349585    -5.343095 
H :        3.347702    -2.623525    -8.494349 
O :        3.244860    -3.112393    -7.656713 
H :        4.140686    -3.098972    -7.264682 
H :        3.197332    -0.942297    -5.577649 
O :        2.352537    -1.120134    -6.056423 
H :        2.584882    -1.860878    -6.664366 
H :        1.817536    -0.163729    -7.478120 
O :        1.349103     0.253338    -8.231844 
H :        1.327176    -0.443478    -8.908223 
H :        4.979964    -1.411410    -9.335950 
O :        4.035994    -1.153625    -9.492029 
H :        3.950221    -1.072320    -10.445059 
H :       -2.852999    -3.979955    -6.094915 
O :       -2.064013    -4.518984    -5.905577 
H :       -1.787290    -4.246468    -4.999070 
H :       -0.437480     0.447868    -7.998563 
O :       -1.382865     0.653247    -7.829830 
H :       -1.563769     0.198241    -6.992196 
H :       -0.780581    -3.427894    -6.759168 
O :       -0.148399    -2.712146    -6.945719 
H :       -0.511693    -1.957472    -6.441322 
O          0.759477    -2.177936    -9.478327 
H          0.348828    -2.422848    -8.616798 
H          0.031677    -2.184519    -10.105218 
*

