600
deformation30 // -1589.182009869719 // -40.6244957872 // -611.465940576919 // -1018.34056508 // -0.0312944762 // -0.580313743969 // -0.008026946722
 H    -1.776702    -0.079987     2.483685
 O    -0.798958    -0.055021     2.565765
 H    -0.527078    -0.948193     2.883885
 H    -0.405663    -1.832639    -2.864906
 O    -0.479580    -1.851985    -1.898135
 H    -1.427436    -1.760915    -1.704611
 H    -2.730049     1.833715     0.873933
 O    -2.635233     1.195915     0.146741
 H    -1.848509     1.479281    -0.353267
 H    -3.721732     1.963785    -2.997062
 O    -3.205646     2.312833    -3.761079
 H    -2.301381     2.438793    -3.455277
 H    -0.105981    -0.615792    -0.795137
 O     0.023743     0.109564    -0.153550
 H    -0.407467    -0.180092     0.661107
 H     0.947843    -1.891164    -4.792334
 O     0.009173    -2.068955    -4.616745
 H    -0.088025    -3.032530    -4.656977
 H    -4.923292     2.432058    -1.251188
 O    -4.559848     1.606786    -1.627060
 H    -3.886057     1.321877    -0.965088
 H    -3.531306     3.373124     2.526464
 O    -2.811159     2.752396     2.303327
 H    -2.038072     3.090609     2.791371
 H     2.562020     0.275855    -2.926942
 O     1.954834    -0.356894    -2.491922
 H     1.052691    -0.044093    -2.697117
 H    -1.130361     0.352742    -3.584938
 O    -0.322634     0.828635    -3.299708
 H    -0.569319     1.423000    -2.572120
 H     2.675428    -0.591592     0.577186
 O     2.583454    -1.335267    -0.053191
 H     2.318295    -0.948710    -0.909616
 H    -2.847748    -0.449993    -0.583853
 O    -2.986563    -0.905418    -1.424757
 H    -3.792398    -1.448704    -1.352011
 H     2.831314     1.250061    -0.782299
 O     2.014677     1.766508    -0.662798
 H     1.296185     1.121015    -0.492618
 H     0.590962     3.203433    -3.208206
 O     1.508350     3.014283    -2.970851
 H     1.507796     2.548794    -2.114720
 H     0.106778    -3.983808    -0.559485
 O    -0.129217    -4.664371    -1.228766
 H    -0.912644    -5.118847    -0.843299
 H    -6.231027     2.158025     3.036063
 O    -6.288500     2.356306     4.007505
 H    -7.041849     1.831038     4.342204
 H     1.124433    -3.731743     1.294758
 O     0.714603    -3.077448     0.699943
 H     1.398995    -2.424225     0.449897
 H    -2.863502     5.248854    -0.959636
 O    -2.687364     4.448688    -0.429855
 H    -3.577452     4.085575    -0.239423
 H    -5.511632    -1.244707     1.685938
 O    -5.235114    -0.607006     0.993686
 H    -5.344221    -1.062871     0.153643
 H    -0.356990    -3.211148     3.036793
 O    -0.042660    -2.403328     3.477719
 H     0.901900    -2.309416     3.272503
 H     5.260231     1.009126    -1.143138
 O     4.471513     0.483133    -0.948568
 H     4.697004     0.064824    -0.087941
 H     0.749567     2.390622     1.076605
 O     0.740373     2.049008     1.980041
 H     0.124738     1.294753     2.027303
 H     4.452861    -0.510138    -2.314963
 O     4.653747    -0.996082    -3.146552
 H     5.138183    -0.352171    -3.704030
 H     3.074491     3.250262    -0.965848
 O     3.955907     3.645667    -0.941478
 H     4.438338     3.354251    -1.738728
 H    -5.880047    -1.452557    -1.900910
 O    -5.355059    -2.156683    -1.462237
 H    -5.272778    -2.872078    -2.116485
 H    -4.934577    -4.037028     1.230653
 O    -5.618172    -3.400366     0.949359
 H    -5.384938    -3.116013     0.055391
 H     2.734400     2.152413    -3.638972
 O     3.405098     1.469474    -3.846018
 H     3.475107     1.433526    -4.805608
 H    -5.131303     3.871062     3.763734
 O    -4.555610     4.457282     3.261291
 H    -4.026436     4.984497     3.897307
 H     0.655916     1.025258    -4.711782
 O     1.147822     0.910470    -5.550802
 H     1.747400     0.151645    -5.394242
 H     1.074842     5.795915    -2.246272
 O     1.865504     5.462620    -1.788414
 H     2.416362     5.013865    -2.460008
 H    -2.803363    -3.453689    -1.798464
 O    -2.956385    -3.705170    -0.871788
 H    -3.722455    -4.295659    -0.846038
 H     2.125166     5.177189    -4.499664
 O     1.250943     5.273413    -4.915655
 H     1.235022     4.578986    -5.601522
 H     7.787927     1.800705    -0.880023
 O     6.997950     1.444943    -1.326461
 H     7.353545     0.762039    -1.930738
 H     4.527560     2.751560     0.370673
 O     4.859621     2.388344     1.216956
 H     4.790616     3.135814     1.846770
 H     1.053349    -3.174331    -2.187400
 O     1.912092    -3.021364    -2.607956
 H     2.003877    -2.046074    -2.633652
 H     1.221116     4.602944    -0.559339
 O     0.760432     4.132067     0.171662
 H     0.085144     4.743684     0.516066
 H    -5.732779     1.021338     1.252575
 O    -6.213706     1.851197     1.445525
 H    -7.147591     1.620706     1.206656
 H    -2.285594    -2.631460     0.253301
 O    -1.805312    -2.065898     0.888232
 H    -0.898840    -2.415325     0.884603
 H    -3.677799    -0.361726     4.275230
 O    -3.671813    -0.499158     5.250079
 H    -4.429196    -1.074904     5.502333
 H    -6.077019    -2.861281     3.207332
 O    -5.627809    -2.004814     3.300630
 H    -4.676449    -2.236959     3.297504
 H    -2.853809    -0.373494    -2.995806
 O    -2.590817    -0.435448    -3.941168
 H    -2.439496    -1.403634    -4.022875
 H    -3.453992    -3.360976    -3.736654
 O    -2.592265    -2.985424    -3.490124
 H    -1.903572    -3.624844    -3.761263
 H     3.223823    -1.161263    -4.265336
 O     2.671409    -1.271965    -5.062482
 H     3.303158    -1.441216    -5.779937
 H     4.700761     2.349171    -6.593829
 O     4.166226     1.529245    -6.612148
 H     3.330246     1.770187    -7.019830
 H    -4.175677     0.935412     5.794206
 O    -4.652841     1.762661     6.060382
 H    -5.215827     1.993000     5.293732
 H    -3.945708    -0.097827     2.006383
 O    -3.405633     0.208516     2.754970
 H    -3.317661     1.180179     2.679082
 H    -5.787798     0.616437    -2.237095
 O    -6.334146    -0.042008    -2.713870
 H    -5.906585    -0.134930    -3.587188
 H     1.877118    -3.810972    -4.151975
 O     1.816134    -4.262703    -5.015990
 H     1.419365    -5.129040    -4.825131
 H     4.456786    -3.591807    -0.676541
 O     4.747807    -2.850109    -0.097188
 H     3.989960    -2.218477    -0.094529
 H    -0.219736     3.024047    -0.866463
 O    -0.970099     2.655467    -1.362067
 H    -1.681139     3.316023    -1.227614
 H     1.795968     4.367390     1.605733
 O     2.251863     4.492416     2.458195
 H     2.055491     3.700792     2.983253
 H     3.716902     1.137805     1.660049
 O     2.944124     0.560963     1.816155
 H     2.173667     1.147595     1.946574
 H     3.129172    -3.966753    -2.114270
 O     3.827007    -4.591643    -1.799988
 H     4.501061    -4.619759    -2.496007
 H     4.962613    -3.780076    -4.553818
 O     5.398092    -3.470287    -3.721734
 H     4.990675    -2.616835    -3.471259
 H    -1.040940     5.037915     2.167822
 O    -1.216087     5.599821     1.377128
 H    -1.854079     5.111728     0.795161
 H    -5.661917     3.198709     0.514003
 O    -5.207136     3.705195    -0.185828
 H    -5.654197     4.564227    -0.331901
 H     5.006074    -3.911761     2.891969
 O     4.255190    -3.731242     2.320600
 H     4.587317    -3.434123     1.443308
 H     5.840751    -1.345586     1.332180
 O     5.447607    -0.450739     1.331861
 H     6.233946     0.126669     1.383582
 H     1.577819    -6.673893    -3.106335
 O     1.394972    -6.871712    -4.049845
 H     2.272537    -6.960091    -4.453027
 H    -7.218128    -3.593890     0.752933
 O    -8.185972    -3.581297     0.551889
 H    -8.644510    -3.395200     1.399987
 H     3.226135    -2.479631     2.778538
 O     2.546632    -1.807840     2.975320
 H     2.771581    -0.999317     2.480480
 H    -1.895152     2.637518     5.130600
 O    -2.608599     3.283921     5.285323
 H    -3.352305     2.780262     5.667295
 H    -0.801519     0.862333     4.006889
 O    -0.677196     1.406130     4.817150
 H     0.164147     1.856871     4.687440
 H     0.293032     3.503406    -6.887089
 O     1.246610     3.299330    -6.767381
 H     1.258241     2.443777    -6.297508
 H     7.139723    -2.941800     4.679552
 O     6.384567    -3.388697     4.227745
 H     5.578631    -3.034045     4.674636
 H     8.008264     1.425077     1.412446
 O     7.921212     0.493887     1.691920
 H     8.404253    -0.055906     1.047693
 H    -4.081569    -0.431643    -4.659500
 O    -5.010678    -0.463238    -4.994684
 H    -4.996375    -0.080788    -5.893352
 H     6.443517    -1.432981    -2.188371
 O     6.850700    -1.899532    -1.453055
 H     6.117100    -2.172053    -0.869675
 H     4.706770    -0.900326     4.426402
 O     5.124698    -0.155069     3.963206
 H     5.068686    -0.309210     2.996185
 H     0.007707     3.275604     2.921491
 O    -0.616704     3.930750     3.292808
 H    -0.305522     4.179734     4.184490
 H     8.241626    -1.248540    -0.736263
 O     9.032300    -0.886837    -0.277842
 H     9.727891    -1.552303    -0.368739
 H     9.616957    -3.852750     2.110537
 O     9.321275    -3.621432     1.199215
 H     10.111452    -3.469689     0.660004
 H    -2.404470    -2.627519     3.828162
 O    -3.029075    -2.703455     3.097081
 H    -2.571830    -2.370464     2.284067
 H    -2.151459     0.845891    -6.263139
 O    -2.775576     1.597592    -6.295227
 H    -3.027532     1.773011    -5.364732
 H    -1.207079     3.899313    -5.463733
 O    -1.329868     3.874797    -6.441187
 H    -1.923649     3.117486    -6.591584
 H    -4.624942    -6.205068    -1.207505
 O    -5.094082    -5.459604    -0.803407
 H    -5.861661    -5.275734    -1.386552
 H     2.658307    -5.793739    -1.545442
 O     1.844230    -6.330839    -1.470976
 H     1.087363    -5.695647    -1.355614
 H     3.272405    -4.211298    -5.684883
 O     4.233031    -4.200374    -5.951158
 H     4.346851    -3.460204    -6.553140
 H     7.507624     3.411119     2.082709
 O     7.423020     3.060483     1.187050
 H     6.490442     2.736240     1.132019
 H     6.605009    -3.902670     0.279613
 O     7.126494    -4.700692     0.071105
 H     8.000815    -4.465538     0.467927
 H    -7.511230    -4.362430    -2.498452
 O    -7.286553    -5.295195    -2.285215
 H    -7.908256    -5.570269    -1.584532
 H    -4.341486     6.754916     4.993933
 O    -3.456401     6.417852     4.758223
 H    -2.974395     6.201588     5.570986
 H     7.296478     3.477650     4.852391
 O     7.293039     3.083897     3.970074
 H     7.541795     2.148964     4.098346
 H    -5.784307     0.857155     6.952020
 O    -6.556240     0.316203     7.238669
 H    -6.285340    -0.605805     7.094822
 H    -0.485295    -4.826821    -2.950194
 O    -0.656844    -4.717357    -3.903119
 H    -1.248367    -5.427406    -4.183701
 H     6.724745     0.177747     4.328495
 O     7.696227     0.363041     4.286496
 H     7.908167     0.331307     3.326843
 H     4.765622    -6.606335    -3.960415
 O     4.072029    -6.772800    -4.636464
 H     4.208230    -6.099052    -5.309956
 H    -5.915698    -1.802821    -5.258795
 O    -6.535101    -2.562924    -5.376791
 H    -7.386381    -2.135935    -5.654416
 H    -7.650847     0.627140     6.029116
 O    -8.211256     0.968439     5.286946
 H    -8.820383     1.594871     5.681287
 H    -5.195410     5.750087     2.344057
 O    -5.428305     6.665695     2.087621
 H    -4.569096     7.136328     2.073168
 H     5.789778     1.624758    -3.994799
 O     6.025715     0.845541    -4.543761
 H     5.532293     0.944699    -5.360467
 H    -5.832651     6.483103     0.434097
 O    -5.860510     6.265851    -0.521160
 H    -4.969988     6.501790    -0.856970
 H    -0.287473    -7.410787    -3.208543
 O    -0.988712    -7.536862    -2.558316
 H    -0.591160    -7.893066    -1.755115
 H    -2.524644    -1.633211     5.509354
 O    -1.874553    -2.363244     5.645420
 H    -1.039151    -1.900980     5.846042
 H     7.486082    -4.449498    -1.636104
 O     7.645601    -4.469390    -2.610362
 H     6.868989    -3.995069    -2.970410
 H    -8.833298    -2.858054    -3.303757
 O    -7.911567    -2.782955    -2.965815
 H    -7.366179    -2.590245    -3.743717
 H     8.823531    -3.291782    -2.948565
 O     9.462433    -2.568138    -3.125939
 H     8.961555    -1.738019    -3.030551
 H    -5.102788    -4.903335    -3.623318
 O    -5.063805    -3.941468    -3.486169
 H    -5.582012    -3.541190    -4.195169
 H    -3.633639     4.063240    -3.491294
 O    -3.339859     4.913454    -3.125377
 H    -3.625338     5.616796    -3.709759
 H    -0.225837     4.786658    -4.007166
 O    -0.884723     4.095847    -3.815157
 H    -1.666469     4.540747    -3.429972
 H    -1.953085    -4.118001     5.326229
 O    -2.249412    -4.975521     4.982994
 H    -3.181776    -4.825848     4.747351
 H    -2.370759     8.431792    -3.679517
 O    -2.578278     7.481660    -3.792248
 H    -2.381883     7.251666    -4.727165
 H    -2.948442     7.301030     3.299246
 O    -2.875455     7.503938     2.351534
 H    -2.280773     6.813778     1.993298
 H     4.823727     1.505559     4.195508
 O     4.671971     2.462222     4.035694
 H     5.546749     2.822159     3.796391
 H     7.883944    -1.844190     6.223873
 O     8.323423    -2.038392     5.372715
 H     8.282429    -1.185744     4.895386
 H     6.030071    -1.597666     7.743255
 O     6.736688    -1.076452     7.349310
 H     6.280778    -0.317837     6.920548
 H    -1.718181     5.711545    -6.418264
 O    -1.848974     6.651230    -6.218271
 H    -0.976782     7.073789    -6.313541
 H    -8.185337    -0.189353     3.959403
 O    -8.003954    -0.720425     3.171253
 H    -7.100890    -1.072229     3.268562
 H    -8.513192     0.167600     0.208914
 O    -8.540031     0.802564     0.943922
 H    -8.514098     0.252491     1.745398
 H     0.843249    -0.592707     5.902190
 O     0.010880    -0.666865     6.424828
 H    -0.490121     0.109968     6.120862
 H    -0.435769     7.027780    -1.608118
 O    -0.395467     6.648395    -2.508901
 H    -1.250118     6.853541    -2.950819
 H     0.556701    -8.031819     0.521964
 O    -0.352586    -8.273018     0.287283
 H    -0.799063    -8.341114     1.158591
 H     2.034573     2.622146     5.258147
 O     2.042052     2.346792     4.316953
 H     2.982533     2.368321     4.062715
 H    -8.002967    -5.430618    -5.543467
 O    -7.106648    -5.289458    -5.889998
 H    -6.948925    -4.338194    -5.829348
 H     3.009983    -7.603006     1.010722
 O     2.127908    -7.227412     0.967456
 H     2.052718    -6.889159     0.036748
 H     3.341563     5.724466    -7.382045
 O     3.490539     4.763153    -7.509436
 H     2.659727     4.315167    -7.286770
 H    -0.485902     6.977373     0.561247
 O    -0.177511     7.685525    -0.028947
 H    -0.850186     8.379149     0.027771
 H     4.459676     3.597270     5.242056
 O     4.377532     4.240733     5.986728
 H     5.259884     4.297145     6.362904
 H     7.666488     2.722849     6.816333
 O     7.141821     3.563924     6.746179
 H     7.631860     4.219632     7.241056
 H     4.007795    -7.955761    -1.034857
 O     4.439462    -7.261637    -0.506120
 H     4.992803    -6.816918    -1.185401
 H     6.706047    -5.985684    -2.755141
 O     5.927463    -6.583259    -2.748782
 H     6.245808    -7.523591    -2.734122
 H    -9.000369    -2.103359     3.001279
 O    -9.489010    -2.918433     2.760329
 H    -10.225096    -2.607021     2.206534
 H    -2.638364     8.749377     1.065795
 O    -2.496392     9.110933     0.175107
 H    -3.290804     9.676572     0.009137
 H     8.108847     0.567993     7.349039
 O     8.453788     1.266116     6.781849
 H     8.301749     0.945878     5.875916
 H    -2.337709     5.074040     7.701622
 O    -2.056206     5.296170     6.815267
 H    -2.252724     4.494344     6.244278
 H    -6.329592    -6.358630    -3.354045
 O    -5.663279    -6.553076    -4.038106
 H    -6.103867    -6.260640    -4.865010
 H     6.777652    -2.838831     2.659767
 O     6.898544    -2.583645     1.726415
 H     7.845827    -2.645619     1.540508
 H     2.355442     6.698378    -0.795223
 O     2.614659     7.433613    -0.195520
 H     1.772583     7.772749     0.132367
 H    -4.229379    -7.311100    -2.917348
 O    -3.667138    -7.362122    -2.135871
 H    -2.757749    -7.485712    -2.463165
 H     0.900879     6.734692    -5.592518
 O     0.731980     7.609982    -6.012791
 H     0.752826     8.238277    -5.261614
 H    -8.289447    -1.585082    -1.658616
 O    -8.579143    -1.320346    -0.771662
 H    -8.352292    -2.112651    -0.234427
 H    -3.243438     7.144415    -2.140835
 O    -3.340637     6.960084    -1.196858
 H    -3.034054     7.758836    -0.718509
 H     2.798137    -4.595261     2.291384
 O     1.882054    -4.934040     2.300334
 H     1.932860    -5.821089     1.886060
 H    -8.840558    -0.681537    -5.013234
 O    -8.755976    -1.254607    -5.810730
 H    -8.468422    -0.652596    -6.519677
 H     7.531403    -0.065652    -3.918776
 O     8.177120    -0.104823    -3.194096
 H     8.852317     0.559304    -3.392949
 H     4.247545     6.652966    -0.050240
 O     4.952966     6.015457    -0.246076
 H     4.489315     5.181817    -0.483566
 H    -7.962937     0.211055    -3.192252
 O    -8.860822     0.234074    -3.583243
 H    -9.463810    -0.002532    -2.877140
 H     6.132143     3.786743    -3.267649
 O     5.653929     3.001666    -2.942451
 H     6.240187     2.570852    -2.276416
 H    -1.371480    -6.916414     0.066453
 O    -1.984444    -6.171179    -0.101072
 H    -2.579506    -6.469392    -0.795808
 H    -3.998881    -7.785368     0.964360
 O    -4.224406    -7.532843     1.862754
 H    -4.004601    -6.573055     1.931596
 H    -2.892876    -5.087011     1.152601
 O    -3.602827    -4.967866     1.804433
 H    -3.314027    -4.255358     2.409935
 H     5.231271    -6.264390     4.771191
 O     4.479453    -6.007604     4.234601
 H     4.763784    -6.106340     3.310265
 H    -9.608407    -6.136748    -3.909878
 O    -9.622253    -5.672294    -4.778209
 H    -10.265298    -6.137332    -5.313804
 H     6.264424    -5.770456     1.177002
 O     5.742210    -6.395956     1.730411
 H     5.180793    -6.834047     1.054551
 H    -1.403530    -6.760118     2.541133
 O    -1.549492    -7.719439     2.595826
 H    -2.510413    -7.838413     2.586060
 H    -10.103495    -3.965528    -4.479170
 O    -10.227144    -3.040353    -4.207707
 H    -9.992350    -2.488100    -4.965800
 H     0.494260     7.963483    -3.210839
 O     0.818379     8.798500    -3.608595
 H     1.720422     8.932773    -3.250533
 H    -9.150539    -7.897644    -2.536943
 O    -9.735308    -7.138348    -2.533743
 H    -9.612556    -6.709292    -1.667636
 H     2.086124     0.610763     4.580536
 O     2.179581    -0.243077     5.044532
 H     2.385166    -0.920857     4.366423
 H    -6.562123     0.455411    -7.576921
 O    -7.520491     0.546388    -7.448008
 H    -7.669970     1.447885    -7.160423
 H     6.244896     3.884967    -7.268981
 O     5.656117     3.822014    -6.516910
 H     4.811683     4.286196    -6.807555
 H    -5.290212     10.303986     0.709368
 O    -4.799514     10.325634    -0.123100
 H    -5.388373     9.848470    -0.740526
 H    -0.817792    -1.096131    -5.753972
 O    -0.979027    -0.435817    -6.462775
 H    -0.190987     0.138275    -6.409039
 H     4.733633    -0.443092    -6.944606
 O     4.812182    -1.377996    -6.726656
 H     5.658200    -1.485292    -6.257145
 H     2.485219    -8.852701    -2.648215
 O     3.441699    -8.787091    -2.614199
 H     3.693069    -8.221049    -3.357520
 H    -4.248620    -0.389883    -7.869138
 O    -4.753646     0.365219    -7.530751
 H    -4.070537     1.001254    -7.218043
 H     1.363194     3.691573     6.696098
 O     2.106722     3.092181     6.902714
 H     2.922269     3.612662     6.782261
 H    -11.355403    -2.590723     0.020502
 O    -10.934540    -1.960470     0.605507
 H    -10.200469    -1.570761     0.098514
 H    -7.402538     2.003371     7.625230
 O    -7.871240     2.846625     7.545790
 H    -7.987407     3.180853     8.434643
 H     6.679285    -9.228031    -1.541848
 O     6.414164    -9.206485    -2.499316
 H     5.491372    -9.497414    -2.517603
 H     6.628757     5.194097    -0.764393
 O     7.264832     4.527708    -1.044425
 H     7.453164     3.991501    -0.247406
 H    -5.377982    -2.850021     5.846684
 O    -5.387758    -2.088984     6.468398
 H    -4.761393    -2.347946     7.166301
 H     2.621688     1.435343     7.488259
 O     3.085705     0.590770     7.398012
 H     2.761550     0.209001     6.555170
 H    -2.715069    -2.865020     7.055744
 O    -3.202323    -2.998730     7.897331
 H    -2.579139    -2.675732     8.564191
 H     5.790875     1.978035     6.681184
 O     5.499816     1.106008     6.408462
 H     4.613581     0.958858     6.800992
 H     1.961495    -4.386455     4.118778
 O     2.445667    -4.327483     4.955294
 H     3.139497    -5.004372     4.870713
 H     10.412902    -2.772919    -1.804413
 O     10.910778    -2.797333    -0.940636
 H     11.839202    -2.756888    -1.163834
 H     3.918017     8.264563    -2.842108
 O     3.242215     8.841762    -2.465708
 H     3.066695     8.489105    -1.574202
 H    -8.193968    -6.431299     0.379721
 O    -8.839287    -6.004044    -0.206647
 H    -8.780187    -5.055719     0.065743
 H    -0.688568     9.683042    -3.210594
 O    -1.625720     9.852926    -2.997286
 H    -1.690465     9.969264    -2.046902
 H     4.136051     3.997458    -3.737252
 O     3.588397     4.787978    -3.757296
 H     4.154230     5.559060    -3.545025
 H     5.201291     6.565598    -1.926006
 O     5.131910     6.778462    -2.877031
 H     5.911342     6.418364    -3.319387
 H    -0.358749     5.164096     6.126329
 O     0.358746     4.684194     5.688842
 H     1.052748     5.324845     5.401101
 H     3.227436     5.530145     5.185272
 O     2.466256     5.976459     4.785453
 H     2.411198     5.648553     3.873842
 H    -7.138818     9.012703    -0.115811
 O    -6.850048     8.790123    -1.010624
 H    -6.622894     7.843898    -0.985443
 H    -1.328097    -5.040265     3.586424
 O    -0.881209    -4.946280     2.714481
 H     0.035327    -5.219480     2.806896
 H     4.228587    -2.187296     6.249249
 O     4.228670    -2.340505     5.279856
 H     3.509108    -2.981423     5.105957
 H     7.052294    -6.221434     3.243255
 O     7.480623    -5.852160     4.034005
 H     7.000223    -5.007719     4.173665
 H     9.013568    -4.886078     3.906843
 O     9.650696    -4.160108     3.775615
 H     9.387170    -3.459511     4.385206
 H     3.086345     7.937936    -8.009995
 O     3.088506     7.398819    -7.220384
 H     2.217306     7.552698    -6.780243
 H    -0.593343    -1.337855     8.129074
 O    -0.802705    -1.974079     8.827229
 H    -0.096299    -2.625464     8.798402
 H     8.383080     4.448277    -2.238484
 O     9.060208     4.470763    -2.963026
 H     9.787203     4.981949    -2.607379
 H     6.399450     4.668117    -5.141248
 O     6.725260     5.059833    -4.309278
 H     7.671716     4.897190    -4.225693
 H     10.654037     2.114127    -4.163341
 O     9.920735     2.007875    -3.559276
 H     9.543574     2.900906    -3.393532
 H     3.144551    -2.464120     7.902266
 O     3.979904    -1.957207     7.904712
 H     3.707019    -1.030512     7.985686
 H    -2.439620    -1.944742    -8.758514
 O    -2.846543    -1.611601    -7.959701
 H    -2.138843    -1.162434    -7.448829
 H     5.127969     5.361759     1.571398
 O     4.920857     4.804383     2.332176
 H     3.951767     4.834781     2.433373
 H    -3.786280    -6.284908    -4.809595
 O    -2.977109    -5.774917    -4.889033
 H    -3.203394    -4.996609    -5.422359
 H    -6.532606     6.181475     4.978921
 O    -6.093125     7.004456     4.695644
 H    -5.963119     6.922741     3.724763
 H    -7.433704     4.151838     6.193581
 O    -7.172635     4.582482     5.369877
 H    -6.931646     3.855554     4.772995
 H    -7.215809     9.518405     2.518754
 O    -6.972380     9.910653     1.655273
 H    -7.437388     10.746680     1.607553
 H    -5.990468    -6.928026     1.727442
 O    -6.601964    -6.293692     1.321933
 H    -6.064104    -5.853172     0.629439
 H    -3.780436    -4.708937     7.656037
 O    -4.019178    -5.551479     7.229531
 H    -3.230855    -5.826171     6.746969
 H     9.552917     0.778954    -0.549309
 O     9.606844     1.734907    -0.730263
 H     9.912774     1.804999    -1.640687
 H    -7.972531    -4.180247     3.299152
 O    -7.047788    -4.448045     3.299824
 H    -6.924137    -5.088254     2.569841
 H     1.061908    -2.324559     6.925670
 O     1.560963    -3.066939     7.283425
 H     1.767652    -3.639010     6.527810
 H    -3.464635    -2.861029    -6.797865
 O    -3.879823    -3.486918    -6.186424
 H    -4.827991    -3.351603    -6.266546
 H    -8.652508     8.403687     3.929032
 O    -7.859260     8.931844     4.030347
 H    -7.183415     8.333182     4.412543
 H     7.998055    -2.146573    -5.173845
 O     7.076633    -1.883367    -5.189046
 H     6.603805    -2.527291    -4.627405
 H    -4.900432    -4.907146     5.817116
 O    -4.945045    -4.321741     5.035980
 H    -5.710440    -4.566513     4.496075
