600
new_deformation30 // -1589.185801806245 // -40.6279392829 // -611.470789089146 // -1018.342952 // -0.0317380434 // -0.580019985747 // -0.008031773872
 H    -1.773004    -0.091310     2.483662
 O    -0.795167    -0.065604     2.564393
 H    -0.521811    -0.959863     2.878167
 H    -0.408006    -1.818826    -2.874642
 O    -0.480454    -1.842515    -1.907857
 H    -1.428121    -1.753367    -1.712520
 H    -2.730900     1.828394     0.883786
 O    -2.636458     1.193913     0.153649
 H    -1.850800     1.480366    -0.346277
 H    -3.728517     1.974406    -2.985115
 O    -3.213966     2.327400    -3.748354
 H    -2.309386     2.453029    -3.443348
 H    -0.106591    -0.610776    -0.799978
 O     0.023281     0.111891    -0.155392
 H    -0.406385    -0.181838     0.658621
 H     0.942680    -1.867331    -4.804326
 O     0.004474    -2.046951    -4.628123
 H    -0.091705    -3.010448    -4.672458
 H    -4.927988     2.433627    -1.235404
 O    -4.564183     1.610429    -1.615452
 H    -3.889083     1.323364    -0.955748
 H    -3.531407     3.359601     2.544281
 O    -2.810900     2.740675     2.317337
 H    -2.037463     3.077604     2.805714
 H     2.557218     0.293262    -2.931806
 O     1.951392    -0.342081    -2.498675
 H     1.048595    -0.029395    -2.701143
 H    -1.136226     0.368890    -3.583950
 O    -0.328607     0.844430    -3.297830
 H    -0.574869     1.435305    -2.567261
 H     2.676839    -0.589492     0.568291
 O     2.584755    -1.330484    -0.065221
 H     2.317883    -0.940456    -0.919538
 H    -2.848223    -0.448998    -0.583877
 O    -2.987785    -0.900868    -1.426573
 H    -3.792902    -1.445377    -1.355021
 H     2.828630     1.258310    -0.783293
 O     2.011595     1.773304    -0.660298
 H     1.294081     1.126259    -0.491894
 H     0.582465     3.219830    -3.197220
 O     1.500418     3.030668    -2.962069
 H     1.501667     2.561411    -2.107999
 H     0.110292    -3.979556    -0.579495
 O    -0.125942    -4.657428    -1.251418
 H    -0.908282    -5.114480    -0.866790
 H    -6.229001     2.139228     3.052543
 O    -6.285242     2.333161     4.024934
 H    -7.037502     1.805575     4.358436
 H     1.130436    -3.734520     1.274322
 O     0.718985    -3.078072     0.683010
 H     1.402270    -2.422983     0.434826
 H    -2.870920     5.251429    -0.934506
 O    -2.693093     4.449134    -0.408522
 H    -3.582489     4.084183    -0.218365
 H    -5.507816    -1.256707     1.686357
 O    -5.233049    -0.615651     0.996512
 H    -5.342902    -1.067932     0.154631
 H    -0.348961    -3.223276     3.020842
 O    -0.034876    -2.417055     3.464856
 H     0.909270    -2.321175     3.258648
 H     5.257272     1.021703    -1.148811
 O     4.469435     0.493969    -0.955387
 H     4.696682     0.072126    -0.096949
 H     0.748390     2.388321     1.083724
 O     0.740929     2.042718     1.985658
 H     0.126211     1.287570     2.030511
 H     4.449854    -0.493290    -2.326118
 O     4.650035    -0.975339    -3.160140
 H     5.132917    -0.328431    -3.715495
 H     3.069292     3.259573    -0.958383
 O     3.950300     3.655859    -0.933584
 H     4.431864     3.368502    -1.732830
 H    -5.881363    -1.449162    -1.900819
 O    -5.354932    -2.154622    -1.466038
 H    -5.272829    -2.867034    -2.123556
 H    -4.928317    -4.046343     1.217905
 O    -5.613045    -3.409218     0.940441
 H    -5.381467    -3.120666     0.047388
 H     2.726432     2.173134    -3.635812
 O     3.397584     1.491869    -3.846866
 H     3.466197     1.460230    -4.806709
 H    -5.130108     3.850279     3.786119
 O    -4.555824     4.439356     3.285408
 H    -4.026290     4.964358     3.922953
 H     0.647609     1.048378    -4.710481
 O     1.138388     0.937842    -5.550731
 H     1.739049     0.179010    -5.398412
 H     1.064881     5.808591    -2.224587
 O     1.856600     5.474171    -1.769383
 H     2.406955     5.029001    -2.443769
 H    -2.802291    -3.447260    -1.811784
 O    -2.953645    -3.702995    -0.885999
 H    -3.719014    -4.294453    -0.861711
 H     2.112525     5.200985    -4.482249
 O     1.237573     5.298057    -4.896508
 H     1.221405     4.606642    -5.585405
 H     7.784471     1.814961    -0.885978
 O     6.994226     1.460280    -1.332801
 H     7.349681     0.780447    -1.940613
 H     4.524916     2.756621     0.373759
 O     4.858649     2.390053     1.217935
 H     4.789749     3.134662     1.851142
 H     1.053520    -3.161846    -2.205235
 O     1.911461    -3.006060    -2.626392
 H     2.002115    -2.030564    -2.647924
 H     1.215013     4.608361    -0.543151
 O     0.755951     4.133748     0.186453
 H     0.080494     4.743081     0.534557
 H    -5.732149     1.010975     1.263320
 O    -6.213715     1.839433     1.460643
 H    -7.147698     1.608946     1.222153
 H    -2.282375    -2.633498     0.242812
 O    -1.801777    -2.070201     0.879513
 H    -0.894921    -2.418586     0.872992
 H    -3.671102    -0.383083     4.276780
 O    -3.663504    -0.524803     5.251003
 H    -4.419864    -1.102508     5.501846
 H    -6.069117    -2.880607     3.201449
 O    -5.620727    -2.024054     3.297853
 H    -4.669113    -2.255111     3.292286
 H    -2.857977    -0.361876    -2.995457
 O    -2.596330    -0.419367    -3.941474
 H    -2.444048    -1.387012    -4.027675
 H    -3.455922    -3.346738    -3.748575
 O    -2.594248    -2.971306    -3.501677
 H    -1.905246    -3.608749    -3.776658
 H     3.218628    -1.137197    -4.277509
 O     2.665146    -1.245006    -5.074310
 H     3.296010    -1.410382    -5.793446
 H     4.688149     2.385127    -6.592700
 O     4.154506     1.564688    -6.613838
 H     3.317648     1.806483    -7.019207
 H    -4.168160     0.906787     5.802201
 O    -4.645851     1.732316     6.072732
 H    -5.210241     1.965398     5.307946
 H    -3.942700    -0.109488     2.009521
 O    -3.401849     0.194160     2.758645
 H    -3.315079     1.166247     2.686911
 H    -5.791934     0.621396    -2.228016
 O    -6.338257    -0.035556    -2.706874
 H    -5.911899    -0.124146    -3.581230
 H     1.875061    -3.788895    -4.173823
 O     1.813291    -4.236882    -5.039730
 H     1.417778    -5.104498    -4.852101
 H     4.459678    -3.582144    -0.701307
 O     4.750734    -2.842680    -0.119123
 H     3.992186    -2.211919    -0.112550
 H    -0.224528     3.029212    -0.855085
 O    -0.975218     2.661974    -1.351190
 H    -1.686795     3.321130    -1.212766
 H     1.793367     4.363915     1.620002
 O     2.250397     4.485696     2.472326
 H     2.055696     3.691545     2.994181
 H     3.717995     1.136287     1.657214
 O     2.946098     0.557893     1.811927
 H     2.175180     1.143077     1.946080
 H     3.130336    -3.952245    -2.138694
 O     3.829339    -4.577728    -1.828211
 H     4.502382    -4.602017    -2.525351
 H     4.959943    -3.752667    -4.580172
 O     5.396292    -3.446238    -3.747450
 H     4.988249    -2.594310    -3.492409
 H    -1.043446     5.028760     2.189271
 O    -1.220405     5.593948     1.401324
 H    -1.858720     5.107707     0.818163
 H    -5.664830     3.191658     0.534249
 O    -5.211663     3.701736    -0.164018
 H    -5.659904     4.560899    -0.305636
 H     5.014661    -3.917204     2.864935
 O     4.262722    -3.735014     2.295488
 H     4.593204    -3.433657     1.419020
 H     5.844131    -1.343240     1.315234
 O     5.449984    -0.448844     1.319446
 H     6.235753     0.129215     1.372539
 H     1.580533    -6.656732    -3.140371
 O     1.396496    -6.850596    -4.084471
 H     2.273556    -6.936231    -4.489358
 H    -7.213075    -3.603676     0.745548
 O    -8.181232    -3.591287     0.546005
 H    -8.638709    -3.409446     1.395598
 H     3.232952    -2.486593     2.760473
 O     2.552992    -1.816442     2.961228
 H     2.776295    -1.005493     2.469623
 H    -1.890537     2.614369     5.142707
 O    -2.604475     3.259279     5.301342
 H    -3.347044     2.753104     5.682197
 H    -0.796600     0.845386     4.009551
 O    -0.671673     1.385746     4.822016
 H     0.168970     1.838002     4.693039
 H     0.278697     3.535678    -6.874297
 O     1.232681     3.332151    -6.756911
 H     1.245973     2.474548    -6.290833
 H     7.149892    -2.952728     4.653597
 O     6.394567    -3.398489     4.200943
 H     5.588902    -3.046706     4.650599
 H     8.008657     1.429481     1.404482
 O     7.923066     0.496970     1.679978
 H     8.405759    -0.049432     1.032613
 H    -4.088159    -0.414075    -4.657560
 O    -5.017731    -0.445239    -4.991494
 H    -5.005201    -0.058816    -5.888487
 H     6.441727    -1.414439    -2.206564
 O     6.850532    -1.883768    -1.473920
 H     6.118111    -2.159683    -0.890655
 H     4.714281    -0.912900     4.413075
 O     5.130681    -0.165138     3.952547
 H     5.073395    -0.315079     2.984940
 H     0.008299     3.264327     2.933598
 O    -0.616289     3.917127     3.308731
 H    -0.304052     4.162528     4.201037
 H     8.241798    -1.234376    -0.756338
 O     9.032752    -0.873807    -0.297508
 H     9.728953    -1.538080    -0.392374
 H     9.611042    -3.860093     2.083361
 O     9.320933    -3.620697     1.171032
 H     10.115892    -3.474568     0.638029
 H    -2.395908    -2.645447     3.817828
 O    -3.021519    -2.718864     3.087352
 H    -2.565864    -2.381778     2.275133
 H    -2.161881     0.872688    -6.258426
 O    -2.786886     1.623819    -6.286269
 H    -3.037646     1.794852    -5.354634
 H    -1.219725     3.923619    -5.446974
 O    -1.343949     3.903272    -6.424342
 H    -1.937106     3.145964    -6.577191
 H    -4.619903    -6.203266    -1.230247
 O    -5.089272    -5.460120    -0.822168
 H    -5.857927    -5.274546    -1.403351
 H     2.662368    -5.782250    -1.577225
 O     1.849005    -6.320589    -1.503914
 H     1.091601    -5.686764    -1.384625
 H     3.268500    -4.180879    -5.710562
 O     4.228708    -4.167710    -5.978213
 H     4.340816    -3.424771    -6.577102
 H     7.506797     3.411985     2.084241
 O     7.421246     3.065205     1.187172
 H     6.488951     2.740157     1.132103
 H     6.621822    -3.879811     0.271307
 O     7.123984    -4.682844     0.033487
 H     8.005896    -4.474873     0.430048
 H    -7.510180    -4.358208    -2.508753
 O    -7.284140    -5.291650    -2.299965
 H    -7.904486    -5.570510    -1.599576
 H    -4.341681     6.729571     5.027842
 O    -3.456573     6.394546     4.789329
 H    -2.973110     6.175245     5.600411
 H     7.299720     3.466070     4.854501
 O     7.295402     3.076206     3.970462
 H     7.545397     2.140997     4.094240
 H    -5.774967     0.821616     6.962056
 O    -6.545864     0.278537     7.247467
 H    -6.274148    -0.642523     7.099153
 H    -0.484413    -4.812691    -2.973013
 O    -0.657509    -4.699221    -3.925189
 H    -1.248656    -5.408692    -4.208016
 H     6.730899     0.167866     4.316914
 O     7.702110     0.354438     4.274284
 H     7.912649     0.327172     3.314185
 H     4.767063    -6.581872    -3.998837
 O     4.072574    -6.746080    -4.674642
 H     4.206968    -6.069189    -5.345328
 H    -5.921645    -1.784663    -5.260160
 O    -6.540373    -2.544936    -5.380581
 H    -7.392544    -2.117686    -5.655052
 H    -7.642627     0.593569     6.040930
 O    -8.204527     0.937504     5.301109
 H    -8.813765     1.561506     5.699115
 H    -5.198443     5.735470     2.374837
 O    -5.432746     6.651936     2.122789
 H    -4.574087     7.123596     2.109129
 H     5.781863     1.650493    -3.998516
 O     6.017852     0.873969    -4.551259
 H     5.523097     0.976170    -5.366784
 H    -5.839361     6.476179     0.469080
 O    -5.868405     6.263107    -0.487083
 H    -4.978651     6.501527    -0.823176
 H    -0.284084    -7.395268    -3.243046
 O    -0.984208    -7.524998    -2.592336
 H    -0.585056    -7.884290    -1.791308
 H    -2.514679    -1.658695     5.503566
 O    -1.863569    -2.388587     5.635442
 H    -1.028386    -1.926272     5.836855
 H     7.477795    -4.428871    -1.655320
 O     7.626929    -4.460219    -2.633142
 H     6.863763    -3.961878    -2.988769
 H    -8.835134    -2.851788    -3.305445
 O    -7.912983    -2.777140    -2.968550
 H    -7.368975    -2.580390    -3.746407
 H     8.822650    -3.267165    -2.978573
 O     9.460496    -2.542047    -3.153633
 H     8.958866    -1.712922    -3.053753
 H    -5.102819    -4.891438    -3.639582
 O    -5.064708    -3.930141    -3.498252
 H    -5.584423    -3.527326    -4.204707
 H    -3.643514     4.076117    -3.470216
 O    -3.350139     4.925041    -3.100992
 H    -3.637279     5.630630    -3.681841
 H    -0.237300     4.805640    -3.987974
 O    -0.895124     4.113248    -3.798030
 H    -1.676791     4.555565    -3.409722
 H    -1.940613    -4.142008     5.308635
 O    -2.236493    -4.998340     4.962064
 H    -3.169376    -4.848680     4.728474
 H    -2.385810     8.446876    -3.641058
 O    -2.592433     7.497018    -3.757669
 H    -2.397180     7.271368    -4.693882
 H    -2.951787     7.284717     3.333505
 O    -2.880444     7.491882     2.386589
 H    -2.285527     6.803978     2.024427
 H     4.828199     1.494109     4.192617
 O     4.675133     2.451296     4.037249
 H     5.549148     2.813270     3.798232
 H     7.895195    -1.861098     6.201629
 O     8.333618    -2.051051     5.348968
 H     8.290955    -1.196354     4.875465
 H     6.043322    -1.623361     7.724845
 O     6.748765    -1.099620     7.332149
 H     6.291365    -0.339637     6.907416
 H    -1.734283     5.739463    -6.392742
 O    -1.865830     6.678110    -6.188414
 H    -0.994255     7.102067    -6.283120
 H    -8.179298    -0.214396     3.968436
 O    -7.998499    -0.741784     3.177684
 H    -7.094898    -1.092996     3.272094
 H    -8.513162     0.158714     0.220051
 O    -8.539613     0.790402     0.957891
 H    -8.511865     0.236832     1.756894
 H     0.852630    -0.616140     5.895964
 O     0.021128    -0.693538     6.419510
 H    -0.481197     0.084063     6.119719
 H    -0.446152     7.035929    -1.578757
 O    -0.406773     6.660563    -2.481263
 H    -1.262314     6.866692    -2.920998
 H     0.566364    -8.031785     0.483424
 O    -0.343002    -8.272972     0.249037
 H    -0.788099    -8.345410     1.120702
 H     2.039389     2.602860     5.264326
 O     2.045769     2.331666     4.321917
 H     2.985843     2.355374     4.066374
 H    -8.005274    -5.413519    -5.557711
 O    -7.109634    -5.269824    -5.904952
 H    -6.952885    -4.318659    -5.840344
 H     3.019893    -7.602367     0.970410
 O     2.137334    -7.227580     0.930115
 H     2.060374    -6.885313     0.001021
 H     3.323996     5.762330    -7.363999
 O     3.473857     4.801756    -7.495849
 H     2.643881     4.351858    -7.273923
 H    -0.492984     6.975904     0.590437
 O    -0.186269     7.686998     0.002911
 H    -0.859634     8.379607     0.063690
 H     4.463372     3.580776     5.248919
 O     4.381622     4.220858     5.996542
 H     5.264472     4.276605     6.371647
 H     7.673512     2.703037     6.814543
 O     7.147800     3.543822     6.748879
 H     7.637844     4.197894     7.245911
 H     3.986486    -8.065398    -1.087126
 O     4.574151    -7.563752    -0.489457
 H     5.022159    -6.963490    -1.122482
 H     6.693837    -5.941377    -2.760720
 O     5.938522    -6.576658    -2.774356
 H     6.303544    -7.484208    -2.751443
 H    -8.993619    -2.125077     3.003100
 O    -9.481706    -2.939631     2.759287
 H    -10.218969    -2.626611     2.207968
 H    -2.646671     8.743242     1.106002
 O    -2.506437     9.108880     0.216706
 H    -3.301729     9.674350     0.054415
 H     8.119080     0.546355     7.337082
 O     8.462390     1.247359     6.772462
 H     8.309355     0.930945     5.865353
 H    -2.331975     5.039035     7.725103
 O    -2.052047     5.265386     6.839318
 H    -2.248521     4.465864     6.265092
 H    -6.327589    -6.349286    -3.374900
 O    -5.662082    -6.539965    -4.060803
 H    -6.104234    -6.244384    -4.885753
 H     6.784689    -2.841265     2.634826
 O     6.903900    -2.581833     1.702438
 H     7.850953    -2.641888     1.514844
 H     2.346638     6.706091    -0.771484
 O     2.605929     7.438967    -0.168933
 H     1.763965     7.775707     0.161702
 H    -4.225659    -7.301305    -2.945538
 O    -3.662193    -7.355138    -2.165133
 H    -2.753157    -7.476260    -2.494323
 H     0.884861     6.761910    -5.566399
 O     0.714354     7.638853    -5.982557
 H     0.735620     8.263854    -5.228649
 H    -8.290248    -1.585467    -1.655520
 O    -8.578914    -1.324969    -0.766977
 H    -8.350372    -2.119379    -0.233579
 H    -3.254744     7.151748    -2.106768
 O    -3.350324     6.963149    -1.163469
 H    -3.043921     7.760130    -0.682061
 H     2.806595    -4.600536     2.264635
 O     1.890907    -4.940383     2.273457
 H     1.942086    -5.825540     1.855200
 H    -8.847388    -0.667767    -5.005296
 O    -8.763358    -1.237221    -5.805437
 H    -8.477539    -0.631767    -6.512151
 H     7.525492    -0.038273    -3.932544
 O     8.172335    -0.079911    -3.209007
 H     8.846491     0.585847    -3.405936
 H     4.239904     6.659527    -0.029531
 O     4.945744     6.023683    -0.229228
 H     4.482672     5.190575    -0.469699
 H    -7.968044     0.217779    -3.181707
 O    -8.866539     0.241509    -3.571253
 H    -9.468204     0.001115    -2.865302
 H     6.122895     3.809637    -3.262352
 O     5.646047     3.022596    -2.939906
 H     6.233782     2.589511    -2.276651
 H    -1.363744    -6.916556     0.035710
 O    -1.977792    -6.171280    -0.127614
 H    -2.573558    -6.467098    -0.822770
 H    -3.988824    -7.792417     0.933693
 O    -4.213288    -7.544108     1.833527
 H    -3.994454    -6.584386     1.906273
 H    -2.885560    -5.093672     1.132180
 O    -3.594669    -4.978201     1.785590
 H    -3.305762    -4.268044     2.393795
 H     5.245313    -6.277805     4.733430
 O     4.492412    -6.019504     4.199100
 H     4.775440    -6.113972     3.273797
 H    -9.607477    -6.128649    -3.924860
 O    -9.623143    -5.660388    -4.791113
 H    -10.266467    -6.123785    -5.327794
 H     6.274716    -5.751055     1.137336
 O     5.776176    -6.326265     1.762539
 H     5.362569    -6.980467     1.176471
 H    -1.392267    -6.771204     2.511101
 O    -1.537073    -7.730920     2.561781
 H    -2.497873    -7.850932     2.552922
 H    -10.105847    -3.955500    -4.483835
 O    -10.230126    -3.031671    -4.208110
 H    -9.997084    -2.475817    -4.964111
 H     0.480430     7.979733    -3.178721
 O     0.803019     8.816860    -3.573275
 H     1.705445     8.950569    -3.215970
 H    -9.145585    -7.895062    -2.560386
 O    -9.731199    -7.136447    -2.552967
 H    -9.607632    -6.711075    -1.685160
 H     2.092179     0.594543     4.577777
 O     2.187285    -0.261228     5.037864
 H     2.392615    -0.935781     4.356468
 H    -6.574066     0.483034    -7.567340
 O    -7.532341     0.572363    -7.436598
 H    -7.682398     1.472415    -7.144819
 H     6.229552     3.925622    -7.263376
 O     5.641969     3.858691    -6.510713
 H     4.796582     4.323198    -6.798049
 H    -5.300789     10.296420     0.760386
 O    -4.811361     10.322288    -0.072709
 H    -5.400609     9.847188    -0.691354
 H    -0.825280    -1.070056    -5.759815
 O    -0.988314    -0.406807    -6.465458
 H    -0.200839     0.167930    -6.410367
 H     4.723623    -0.405524    -6.955834
 O     4.803544    -1.341290    -6.742125
 H     5.650383    -1.449700    -6.274352
 H     2.491058    -8.836496    -2.693294
 O     3.447454    -8.769930    -2.660163
 H     3.697148    -8.200386    -3.401528
 H    -4.260057    -0.358358    -7.866730
 O    -4.765421     0.394677    -7.524264
 H    -4.082558     1.030096    -7.209774
 H     1.368964     3.665183     6.707977
 O     2.113472     3.065724     6.910839
 H     2.928254     3.587649     6.791467
 H    -11.352561    -2.601951     0.023717
 O    -10.931530    -1.973809     0.610867
 H    -10.198655    -1.581043     0.104504
 H    -7.393471     1.963030     7.642724
 O    -7.863236     2.806098     7.567703
 H    -7.978447     3.136274     8.458192
 H     5.941295    -9.026198    -1.381046
 O     6.349980    -9.281403    -2.225668
 H     5.619979    -9.700124    -2.702036
 H     6.621677     5.206503    -0.753658
 O     7.258078     4.542071    -1.037574
 H     7.448202     4.002569    -0.243208
 H    -5.366146    -2.880192     5.839780
 O    -5.375844    -2.121915     6.464858
 H    -4.748146    -2.383244     7.160678
 H     2.631168     1.406902     7.488305
 O     3.095995     0.563258     7.393644
 H     2.771007     0.184843     6.549611
 H    -2.701412    -2.897521     7.044792
 O    -3.187256    -3.035487     7.886507
 H    -2.563438    -2.714730     8.553854
 H     5.798534     1.956715     6.678907
 O     5.508044     1.085571     6.402777
 H     4.622563     0.935694     6.795975
 H     1.972454    -4.400729     4.094177
 O     2.457810    -4.344899     4.930222
 H     3.152262    -5.020637     4.841619
 H     10.413205    -2.751614    -1.834456
 O     10.912365    -2.779243    -0.971511
 H     11.840417    -2.736781    -1.195923
 H     3.904395     8.283041    -2.813772
 O     3.228512     8.857814    -2.433824
 H     3.054720     8.501034    -1.543620
 H    -8.186295    -6.440510     0.361285
 O    -8.832968    -6.011402    -0.222231
 H    -8.774522    -5.064220     0.054249
 H    -0.704321     9.697941    -3.169132
 O    -1.641342     9.865828    -2.953680
 H    -1.704796     9.977903    -2.002697
 H     4.125867     4.020171    -3.728045
 O     3.577300     4.810154    -3.743787
 H     4.142586     5.580930    -3.528963
 H     5.190940     6.581501    -1.907084
 O     5.119898     6.798476    -2.857056
 H     5.899071     6.441210    -3.302158
 H    -0.355476     5.138263     6.147274
 O     0.361901     4.661102     5.706606
 H     1.054754     5.303796     5.420658
 H     3.228885     5.512494     5.202495
 O     2.466608     5.959708     4.805783
 H     2.410554     5.635761     3.892818
 H    -7.149180     9.006705    -0.067721
 O    -6.861500     8.788396    -0.963937
 H    -6.633249     7.842325    -0.943266
 H    -1.317197    -5.055891     3.563850
 O    -0.871718    -4.957560     2.691665
 H     0.045260    -5.230133     2.781508
 H     4.240267    -2.208429     6.230941
 O     4.239071    -2.357365     5.260881
 H     3.519968    -2.998319     5.085233
 H     7.095911    -6.209169     3.218711
 O     7.513650    -5.854231     4.024511
 H     7.023769    -5.017874     4.173105
 H     9.024746    -4.891457     3.869535
 O     9.660877    -4.164217     3.740539
 H     9.397487    -3.466607     4.353624
 H     3.065360     7.978257    -7.981803
 O     3.069306     7.435669    -7.194581
 H     2.198593     7.586625    -6.752467
 H    -0.579794    -1.372712     8.121679
 O    -0.787398    -2.012243     8.817334
 H    -0.080308    -2.662698     8.784582
 H     8.374627     4.469163    -2.233638
 O     9.050644     4.495605    -2.959082
 H     9.777597     5.006037    -2.602269
 H     6.386412     4.699560    -5.132444
 O     6.713027     5.087972    -4.299241
 H     7.659788     4.926028    -4.217785
 H     10.645314     2.146078    -4.172151
 O     9.913036     2.036339    -3.567468
 H     9.535123     2.928205    -3.397225
 H     3.159016    -2.493757     7.884336
 O     3.993803    -1.985918     7.887772
 H     3.720002    -1.059897     7.973237
 H    -2.450650    -1.907243    -8.765649
 O    -2.856750    -1.578085    -7.964769
 H    -2.148790    -1.130376    -7.452977
 H     5.124198     5.362178     1.585084
 O     4.918848     4.801221     2.343705
 H     3.949877     4.830082     2.446480
 H    -3.786541    -6.266286    -4.833900
 O    -2.978061    -5.755038    -4.912296
 H    -3.206014    -4.974643    -5.441846
 H    -6.532178     6.153734     5.013569
 O    -6.094043     6.978450     4.733268
 H    -5.965398     6.901162     3.761844
 H    -7.429185     4.117750     6.220610
 O    -7.169831     4.552314     5.398425
 H    -6.928921     3.828295     4.797985
 H    -7.222796     9.500703     2.569160
 O    -6.981098     9.897027     1.707055
 H    -7.447113     10.732731     1.663714
 H    -5.980227    -6.940690     1.703516
 O    -6.593038    -6.305264     1.301720
 H    -6.056708    -5.861091     0.610374
 H    -3.763814    -4.745264     7.638536
 O    -4.002251    -5.586187     7.208676
 H    -3.214343    -5.857861     6.723733
 H     9.551097     0.793751    -0.562403
 O     9.603682     1.750552    -0.739220
 H     9.908171     1.825000    -1.649782
 H    -7.963011    -4.202099     3.290279
 O    -7.037969    -4.468855     3.288392
 H    -6.914694    -5.105701     2.555410
 H     1.074758    -2.352238     6.911471
 O     1.575180    -3.095625     7.265204
 H     1.781379    -3.664128     6.506767
 H    -3.471703    -2.833316    -6.807532
 O    -3.885276    -3.462361    -6.198239
 H    -4.833713    -3.327763    -6.276350
 H    -8.656135     8.378163     3.976650
 O    -7.863328     8.906761     4.079109
 H    -7.186243     8.307182     4.457654
 H     7.992593    -2.113125    -5.197483
 O     7.070861    -1.850874    -5.210122
 H     6.599589    -2.497780    -4.650608
 H    -4.886337    -4.936628     5.800431
 O    -4.932774    -4.347837     5.021952
 H    -5.698702    -4.591088     4.482114
