6
Coordinates from ORCA-job ch3oh E -115.673251363155
  C      -0.049548      0.664707     -0.000000
  O      -0.038924     -0.741601     -0.000000
  H      -1.095341      0.966340      0.000000
  H       0.873587     -1.048919      0.000000
  H       0.437897      1.073695      0.891733
  H       0.437897      1.073695     -0.891733
6
Coordinates from ORCA-job ch3oh E -115.673471998830
  C      -0.047609      0.663586      0.000000
  O      -0.039267     -0.752960     -0.000000
  H      -1.090855      0.969385      0.000000
  H       0.874087     -1.055826      0.000000
  H       0.434605      1.081866      0.889979
  H       0.434605      1.081866     -0.889979
6
Coordinates from ORCA-job ch3oh E -115.673501212241
  C      -0.046480      0.662286      0.000000
  O      -0.040801     -0.758018      0.000000
  H      -1.088675      0.971122     -0.000000
  H       0.874742     -1.055088     -0.000000
  H       0.433391      1.083808      0.889075
  H       0.433391      1.083808     -0.889075
6
Coordinates from ORCA-job ch3oh E -115.673503455364
  C      -0.046366      0.661773      0.000000
  O      -0.041494     -0.758830     -0.000000
  H      -1.088384      0.971767     -0.000000
  H       0.875076     -1.053204     -0.000000
  H       0.433368      1.083205      0.889134
  H       0.433368      1.083205     -0.889134
6
Coordinates from ORCA-job ch3oh E -115.673503890304
  C      -0.046463      0.661570      0.000000
  O      -0.041782     -0.758970     -0.000000
  H      -1.088361      0.972206     -0.000000
  H       0.875311     -1.051909     -0.000000
  H       0.433431      1.082509      0.889293
  H       0.433431      1.082509     -0.889293
6
Coordinates from ORCA-job ch3oh E -115.673503920010
  C      -0.046529      0.661592     -0.000000
  O      -0.041771     -0.758940      0.000000
  H      -1.088389      0.972331     -0.000000
  H       0.875374     -1.051706      0.000000
  H       0.433441      1.082320      0.889356
  H       0.433441      1.082320     -0.889356
