604
grain_mol46 // -1645.76109765643 // -45.0606297974 // -668.03284691383 // -1022.78888054 // -0.0451929887 // -0.583222002764 // -0.012409417165
 H    -1.779014     0.014382     2.493650
 O    -0.801503     0.048053     2.573257
 H    -0.521928    -0.834967     2.911681
 H    -0.396430    -1.842362    -2.816864
 O    -0.471278    -1.844696    -1.849844
 H    -1.419353    -1.752538    -1.658472
 H    -2.748063     1.885024     0.843330
 O    -2.649059     1.232541     0.129694
 H    -1.864497     1.511573    -0.376513
 H    -3.742801     1.924186    -3.028407
 O    -3.229991     2.259644    -3.800492
 H    -2.326707     2.400711    -3.498249
 H    -0.105470    -0.579747    -0.773861
 O     0.016364     0.161389    -0.149356
 H    -0.409430    -0.114033     0.672987
 H     0.954968    -1.930756    -4.743614
 O     0.017798    -2.113150    -4.563284
 H    -0.069131    -3.078210    -4.584791
 H    -4.947324     2.420617    -1.292755
 O    -4.578130     1.589622    -1.650216
 H    -3.900982     1.325794    -0.982831
 H    -3.559934     3.453815     2.462989
 O    -2.835624     2.833292     2.252980
 H    -2.064431     3.188467     2.732235
 H     2.554419     0.285767    -2.926639
 O     1.951289    -0.341631    -2.478175
 H     1.047271    -0.039223    -2.689512
 H    -1.139913     0.321822    -3.583703
 O    -0.335849     0.809192    -3.308990
 H    -0.586055     1.417540    -2.594229
 H     2.675904    -0.503696     0.595552
 O     2.583401    -1.261174    -0.018252
 H     2.320286    -0.894156    -0.883743
 H    -2.848825    -0.428360    -0.565259
 O    -2.984094    -0.906505    -1.394222
 H    -3.787459    -1.451238    -1.309236
 H     2.817668     1.309379    -0.803494
 O     1.996341     1.821430    -0.695822
 H     1.283569     1.174109    -0.510659
 H     0.559483     3.192248    -3.269606
 O     1.478434     3.015173    -3.029485
 H     1.482948     2.568452    -2.163386
 H     0.134155    -3.939031    -0.466323
 O    -0.102361    -4.636741    -1.119135
 H    -0.880845    -5.084832    -0.721332
 H    -6.249948     2.229614     3.000951
 O    -6.308411     2.447806     3.967928
 H    -7.057691     1.924414     4.314373
 H     1.151367    -3.639253     1.380898
 O     0.733726    -3.003875     0.770712
 H     1.412046    -2.348439     0.507403
 H    -2.908784     5.259246    -1.063420
 O    -2.726466     4.471769    -0.516936
 H    -3.613597     4.106211    -0.318149
 H    -5.505301    -1.195724     1.724364
 O    -5.233971    -0.571789     1.017757
 H    -5.340945    -1.045938     0.187784
 H    -0.332878    -3.092643     3.110416
 O    -0.026355    -2.274510     3.535590
 H     0.917972    -2.175530     3.329310
 H     5.247459     1.077603    -1.161775
 O     4.462173     0.551051    -0.954657
 H     4.693252     0.152396    -0.085714
 H     0.727957     2.473842     1.030874
 O     0.720501     2.152475     1.941733
 H     0.111840     1.394085     2.005352
 H     4.451973    -0.472408    -2.299309
 O     4.652315    -0.973318    -3.122183
 H     5.134478    -0.338874    -3.692321
 H     3.044813     3.306001    -1.031620
 O     3.922417     3.709999    -1.016692
 H     4.407959     3.404104    -1.806744
 H    -5.873746    -1.483937    -1.856526
 O    -5.343789    -2.175512    -1.403333
 H    -5.256475    -2.903007    -2.043247
 H    -4.906215    -3.992975     1.328469
 O    -5.595501    -3.369309     1.033832
 H    -5.365470    -3.099962     0.134344
 H     2.711354     2.148657    -3.679868
 O     3.386039     1.465686    -3.872458
 H     3.457496     1.410221    -4.830995
 H    -5.162810     3.966562     3.690740
 O    -4.592210     4.545815     3.174694
 H    -4.066638     5.091222     3.798390
 H     0.641400     0.982678    -4.726147
 O     1.132020     0.852468    -5.563508
 H     1.739094     0.102920    -5.390517
 H     1.024668     5.808162    -2.365354
 O     1.817795     5.491026    -1.900522
 H     2.372481     5.032317    -2.562296
 H    -2.781382    -3.458406    -1.712457
 O    -2.926228    -3.700722    -0.781537
 H    -3.694569    -4.287317    -0.743417
 H     2.078099     5.149104    -4.604940
 O     1.202755     5.229411    -5.022225
 H     1.192233     4.520374    -5.693044
 H     7.769020     1.894306    -0.918409
 O     6.981124     1.524712    -1.357539
 H     7.341800     0.829499    -1.944885
 H     4.502261     2.848225     0.314821
 O     4.836108     2.505696     1.168770
 H     4.763271     3.266012     1.782362
 H     1.071762    -3.155036    -2.111664
 O     1.930169    -3.007987    -2.533945
 H     2.016415    -2.033019    -2.582686
 H     1.181082     4.653086    -0.652964
 O     0.723436     4.194405     0.087731
 H     0.044737     4.808786     0.420014
 H    -5.743961     1.058617     1.241815
 O    -6.231406     1.888356     1.417302
 H    -7.163538     1.645926     1.184132
 H    -2.268441    -2.588850     0.318264
 O    -1.793318    -2.007142     0.941913
 H    -0.883026    -2.346968     0.944083
 H    -3.676687    -0.242355     4.292197
 O    -3.668964    -0.359688     5.269618
 H    -4.421997    -0.935045     5.534929
 H    -6.056997    -2.783763     3.281196
 O    -5.613985    -1.922237     3.354266
 H    -4.660870    -2.146899     3.356561
 H    -2.857205    -0.405671    -2.977216
 O    -2.595535    -0.486339    -3.921418
 H    -2.435018    -1.454212    -3.982623
 H    -3.435135    -3.412661    -3.653863
 O    -2.576954    -3.026303    -3.412538
 H    -1.882210    -3.662953    -3.674088
 H     3.225980    -1.173698    -4.234854
 O     2.673065    -1.305391    -5.028777
 H     3.305822    -1.486210    -5.742663
 H     4.674366     2.296044    -6.639477
 O     4.145297     1.472352    -6.639856
 H     3.307546     1.698628    -7.052168
 H    -4.183314     1.082982     5.783377
 O    -4.667433     1.911443     6.032053
 H    -5.232082     2.121221     5.260767
 H    -3.947999    -0.029517     2.018078
 O    -3.410207     0.296103     2.759927
 H    -3.328746     1.266723     2.663307
 H    -5.798201     0.577358    -2.237931
 O    -6.339153    -0.096466    -2.699482
 H    -5.911967    -0.203873    -3.571406
 H     1.902336    -3.828085    -4.065019
 O     1.837994    -4.295223    -4.920254
 H     1.461556    -5.166649    -4.706666
 H     4.484891    -3.516130    -0.589854
 O     4.761719    -2.755750    -0.031131
 H     3.997638    -2.133328    -0.043843
 H    -0.248004     3.056894    -0.924659
 O    -0.996355     2.671716    -1.410886
 H    -1.711759     3.330248    -1.290540
 H     1.759069     4.468839     1.516382
 O     2.213143     4.616703     2.365986
 H     2.024796     3.834613     2.908036
 H     3.705332     1.255062     1.639385
 O     2.935851     0.677069     1.808001
 H     2.162194     1.261391     1.927131
 H     3.156042    -3.935302    -2.018926
 O     3.856960    -4.553685    -1.699136
 H     4.534249    -4.573255    -2.392910
 H     4.982253    -3.784777    -4.468572
 O     5.413343    -3.456506    -3.641542
 H     5.004371    -2.598394    -3.410657
 H    -1.082564     5.129798     2.066490
 O    -1.263131     5.673348     1.264151
 H    -1.897172     5.167668     0.693260
 H    -5.690519     3.220401     0.456270
 O    -5.240642     3.714040    -0.255624
 H    -5.693449     4.567001    -0.419408
 H     5.032177    -3.763831     2.975949
 O     4.277861    -3.588811     2.407053
 H     4.609088    -3.315461     1.521692
 H     5.847042    -1.214801     1.363922
 O     5.446372    -0.323144     1.344262
 H     6.229650     0.259628     1.382775
 H     1.650221    -6.656931    -3.058672
 O     1.422475    -6.839647    -3.999484
 H     2.295998    -7.005720    -4.398732
 H    -7.194587    -3.577785     0.843838
 O    -8.162310    -3.578055     0.643186
 H    -8.622073    -3.375848     1.487172
 H     3.242990    -2.338477     2.838232
 O     2.555667    -1.669136     3.018488
 H     2.776338    -0.869586     2.507365
 H    -1.916476     2.788100     5.080797
 O    -2.635332     3.431692     5.221811
 H    -3.374287     2.930762     5.615976
 H    -0.809603     0.997661     3.995016
 O    -0.689645     1.559703     4.793086
 H     0.148563     2.013553     4.653649
 H     0.257470     3.409770    -6.954458
 O     1.212504     3.215618    -6.831020
 H     1.231267     2.370528    -6.342742
 H     7.161871    -2.729848     4.741987
 O     6.407818    -3.187904     4.300257
 H     5.601290    -2.830777     4.741699
 H     7.995390     1.570133     1.380493
 O     7.913222     0.645680     1.681431
 H     8.400108     0.083135     1.050399
 H    -4.085749    -0.509277    -4.638497
 O    -5.014806    -0.556525    -4.972355
 H    -5.003956    -0.192617    -5.878863
 H     6.447846    -1.375560    -2.155787
 O     6.860392    -1.819266    -1.409847
 H     6.131259    -2.093420    -0.821993
 H     4.713207    -0.713581     4.447899
 O     5.122118     0.026300     3.968501
 H     5.070077    -0.150991     3.005029
 H    -0.020223     3.392956     2.856829
 O    -0.650340     4.050304     3.214591
 H    -0.339832     4.321663     4.100065
 H     8.247035    -1.147114    -0.706210
 O     9.034537    -0.764960    -0.259155
 H     9.734640    -1.428400    -0.329610
 H     9.626406    -3.694364     2.181126
 O     9.328109    -3.516293     1.263055
 H     10.092014    -3.358580     0.697535
 H    -2.387170    -2.508187     3.893678
 O    -3.010063    -2.608418     3.163730
 H    -2.556210    -2.286072     2.344493
 H    -2.165907     0.748010    -6.271186
 O    -2.796875     1.493172    -6.319010
 H    -3.048662     1.687484    -5.392266
 H    -1.244846     3.825103    -5.538720
 O    -1.368541     3.778450    -6.515282
 H    -1.956344     3.013522    -6.648818
 H    -4.582083    -6.210999    -1.063719
 O    -5.056088    -5.461980    -0.674308
 H    -5.826578    -5.294905    -1.259546
 H     2.679839    -5.762981    -1.432158
 O     1.854809    -6.289037    -1.346594
 H     1.132275    -5.605239    -1.267807
 H     3.295515    -4.253790    -5.588558
 O     4.256022    -4.242394    -5.855964
 H     4.365201    -3.513773    -6.472675
 H     7.478026     3.567163     2.010203
 O     7.394932     3.199062     1.121447
 H     6.466086     2.863969     1.074753
 H     6.648605    -3.772498     0.378639
 O     7.139171    -4.584177     0.168399
 H     8.026880    -4.415206     0.540195
 H    -7.482527    -4.419831    -2.390774
 O    -7.249696    -5.345694    -2.155593
 H    -7.870481    -5.609795    -1.449697
 H    -4.394879     6.882276     4.857139
 O    -3.507667     6.546518     4.627858
 H    -3.023184     6.352010     5.444678
 H     7.268169     3.692202     4.777633
 O     7.266279     3.280190     3.903771
 H     7.522914     2.349827     4.051201
 H    -5.791069     1.017401     6.943464
 O    -6.558701     0.476605     7.242055
 H    -6.280388    -0.446069     7.118737
 H    -0.454247    -4.833734    -2.839741
 O    -0.628771    -4.749877    -3.794408
 H    -1.217832    -5.468226    -4.058827
 H     6.721684     0.378850     4.325200
 O     7.690865     0.573610     4.278340
 H     7.903349     0.518323     3.319713
 H     4.803514    -6.626875    -3.788768
 O     4.121158    -6.788869    -4.473245
 H     4.268562    -6.121373    -5.150725
 H    -5.909150    -1.907683    -5.206873
 O    -6.522559    -2.675411    -5.307275
 H    -7.377338    -2.261019    -5.593657
 H    -7.656157     0.752855     6.027261
 O    -8.219948     1.072978     5.278152
 H    -8.833318     1.703538     5.659184
 H    -5.242530     5.813628     2.230215
 O    -5.482797     6.721540     1.954085
 H    -4.627216     7.198436     1.928872
 H     5.770605     1.636573    -4.026116
 O     6.011330     0.847657    -4.558765
 H     5.516931     0.925722    -5.377071
 H    -5.886622     6.500127     0.305384
 O    -5.913377     6.261530    -0.644828
 H    -5.025035     6.497507    -0.986541
 H    -0.248575    -7.542133    -3.278882
 O    -0.957049    -7.717724    -2.633367
 H    -0.498165    -7.819376    -1.789000
 H    -2.512691    -1.478561     5.552934
 O    -1.857299    -2.201078     5.702656
 H    -1.025277    -1.728196     5.893913
 H     7.538861    -4.425736    -1.495149
 O     7.660033    -4.420161    -2.468475
 H     6.879574    -3.958396    -2.820363
 H    -8.817179    -2.943488    -3.226578
 O    -7.895487    -2.855688    -2.891318
 H    -7.352783    -2.673035    -3.673564
 H     8.837759    -3.246303    -2.869439
 O     9.467716    -2.522006    -3.073730
 H     8.963287    -1.693271    -2.988812
 H    -5.072280    -4.965112    -3.506261
 O    -5.040676    -4.000744    -3.388785
 H    -5.562077    -3.618694    -4.105680
 H    -3.671761     4.013077    -3.569047
 O    -3.384726     4.872897    -3.220939
 H    -3.674811     5.561700    -3.820218
 H    -0.269324     4.750660    -4.102675
 O    -0.923487     4.059653    -3.895286
 H    -1.707693     4.507389    -3.518713
 H    -1.921057    -3.963024     5.422846
 O    -2.211636    -4.829149     5.096377
 H    -3.145968    -4.690983     4.861372
 H    -2.442486     8.385786    -3.852104
 O    -2.643253     7.431950    -3.944275
 H    -2.445061     7.183355    -4.874061
 H    -3.007022     7.402292     3.149764
 O    -2.936761     7.584830     2.197729
 H    -2.336485     6.891971     1.854172
 H     4.810078     1.687900     4.165026
 O     4.650479     2.639938     3.985163
 H     5.522753     3.000844     3.737700
 H     7.896894    -1.591315     6.264906
 O     8.337788    -1.800452     5.418420
 H     8.290752    -0.960225     4.920940
 H     6.042250    -1.328219     7.778921
 O     6.744101    -0.807873     7.375600
 H     6.281897    -0.064037     6.928549
 H    -1.770310     5.612266    -6.531874
 O    -1.908501     6.554968    -6.352171
 H    -1.039593     6.982171    -6.456963
 H    -8.185837    -0.112148     3.976030
 O    -8.000747    -0.659601     3.199916
 H    -7.094635    -1.001127     3.304271
 H    -8.518570     0.160629     0.219183
 O    -8.550008     0.810888     0.940363
 H    -8.519189     0.278731     1.753640
 H     0.846722    -0.404105     5.920307
 O     0.014347    -0.474036     6.444078
 H    -0.491632     0.293301     6.124823
 H    -0.495158     7.041999    -1.752573
 O    -0.453051     6.643255    -2.644887
 H    -1.309357     6.832690    -3.090374
 H     0.646870    -8.054117     0.827916
 O    -0.245908    -8.353565     0.544045
 H    -0.731232    -8.380794     1.400274
 H     2.013433     2.805433     5.205533
 O     2.022134     2.510009     4.270473
 H     2.962554     2.532860     4.015362
 H    -7.968088    -5.557785    -5.410865
 O    -7.071925    -5.418210    -5.758519
 H    -6.922308    -4.464327    -5.721374
 H     3.061673    -7.436594     1.102177
 O     2.149909    -7.110553     1.113787
 H     2.052517    -6.781580     0.171690
 H     3.288578     5.643012    -7.499678
 O     3.444546     4.680398    -7.606791
 H     2.617528     4.231019    -7.373356
 H    -0.543695     7.038336     0.417606
 O    -0.241591     7.735704    -0.188428
 H    -0.919322     8.425365    -0.145961
 H     4.430747     3.798422     5.166631
 O     4.343523     4.457481     5.897205
 H     5.225614     4.528549     6.271649
 H     7.644408     2.983070     6.757044
 O     7.113060     3.818658     6.669952
 H     7.599509     4.488505     7.149147
 H     4.192398    -7.972204    -0.957937
 O     4.661208    -7.434286    -0.277521
 H     5.098528    -6.761492    -0.832419
 H     6.729897    -5.920316    -2.600378
 O     5.960385    -6.513193    -2.534765
 H     6.293500    -7.426123    -2.456420
 H    -8.986219    -2.053160     3.060758
 O    -9.467988    -2.877358     2.837187
 H    -10.207551    -2.583647     2.278369
 H    -2.709662     8.804160     0.885269
 O    -2.571258     9.147154    -0.013280
 H    -3.369900     9.703158    -0.190799
 H     8.104829     0.843915     7.335399
 O     8.442760     1.533374     6.753538
 H     8.293873     1.192241     5.854622
 H    -2.376350     5.275804     7.599054
 O    -2.098099     5.481201     6.707653
 H    -2.287918     4.665612     6.154401
 H    -6.288098    -6.422942    -3.201789
 O    -5.619617    -6.630901    -3.880078
 H    -6.061620    -6.359129    -4.713682
 H     6.796640    -2.675518     2.720176
 O     6.916859    -2.427436     1.784723
 H     7.863189    -2.507493     1.595320
 H     2.298988     6.751804    -0.934673
 O     2.552429     7.502196    -0.351531
 H     1.707947     7.841621    -0.030348
 H    -4.182866    -7.348516    -2.741950
 O    -3.604961    -7.388232    -1.970579
 H    -2.701678    -7.493913    -2.318715
 H     0.841195     6.673014    -5.730485
 O     0.664635     7.537572    -6.169456
 H     0.681600     8.182220    -5.432154
 H    -8.282232    -1.630270    -1.610623
 O    -8.573354    -1.348951    -0.729342
 H    -8.340337    -2.127465    -0.175163
 H    -3.304155     7.125489    -2.285300
 O    -3.399823     6.960812    -1.337525
 H    -3.098808     7.771965    -0.876719
 H     2.830997    -4.466052     2.397998
 O     1.917130    -4.813674     2.411311
 H     1.980804    -5.706992     2.013535
 H    -8.842327    -0.804430    -4.983375
 O    -8.753479    -1.394202    -5.768117
 H    -8.471354    -0.805253    -6.490209
 H     7.525267    -0.038221    -3.915369
 O     8.170855    -0.057872    -3.190105
 H     8.842144     0.605654    -3.402834
 H     4.191643     6.737219    -0.190321
 O     4.901849     6.101342    -0.373291
 H     4.444957     5.258887    -0.592070
 H    -7.970686     0.134720    -3.182263
 O    -8.868783     0.140977    -3.573253
 H    -9.469948    -0.082386    -2.861331
 H     6.096894     3.816296    -3.345599
 O     5.624040     3.035199    -3.003717
 H     6.214510     2.621812    -2.329747
 H    -1.308015    -6.928725     0.243842
 O    -1.912769    -6.177972     0.054838
 H    -2.513726    -6.509442    -0.628370
 H    -3.946445    -7.736239     1.141587
 O    -4.166352    -7.469386     2.037045
 H    -3.956469    -6.505839     2.085991
 H    -2.854309    -5.025997     1.272465
 O    -3.565346    -4.902947     1.920711
 H    -3.285082    -4.173804     2.511647
 H     5.278452    -6.060593     4.910421
 O     4.521710    -5.828059     4.368997
 H     4.816408    -5.934633     3.448372
 H    -9.567753    -6.239627    -3.761645
 O    -9.584743    -5.794771    -4.639986
 H    -10.226046    -6.274655    -5.164466
 H     6.288582    -5.581704     1.297481
 O     5.778620    -6.162073     1.898968
 H     5.325152    -6.764518     1.294819
 H    -1.351336    -6.659539     2.699865
 O    -1.492208    -7.619764     2.766767
 H    -2.452569    -7.744471     2.762565
 H    -10.079669    -4.084943    -4.377725
 O    -10.209899    -3.155387    -4.125275
 H    -9.980732    -2.617163    -4.895136
 H     0.426672     7.949888    -3.375812
 O     0.743802     8.778670    -3.791707
 H     1.645202     8.927458    -3.437550
 H    -9.095586    -7.967225    -2.349527
 O    -9.685452    -7.212068    -2.363489
 H    -9.566608    -6.763037    -1.507037
 H     2.080365     0.780353     4.571743
 O     2.177913    -0.062743     5.054098
 H     2.391603    -0.753232     4.391230
 H    -6.574608     0.294870    -7.572655
 O    -7.533552     0.380745    -7.444294
 H    -7.689961     1.287337    -7.177098
 H     6.206467     3.828279    -7.348836
 O     5.618147     3.777065    -6.595522
 H     4.770427     4.228660    -6.895420
 H    -5.373827     10.330063     0.497213
 O    -4.883832     10.337489    -0.335903
 H    -5.469216     9.842602    -0.942511
 H    -0.816604    -1.172345    -5.721195
 O    -0.984478    -0.528739    -6.443722
 H    -0.200510     0.052355    -6.403210
 H     4.728902    -0.502684    -6.929419
 O     4.813767    -1.432197    -6.691811
 H     5.660817    -1.523900    -6.220540
 H     2.654000    -9.317880    -2.166291
 O     3.588133    -8.995729    -2.320302
 H     3.547850    -8.418212    -3.095334
 H    -4.254604    -0.538670    -7.848329
 O    -4.765596     0.219186    -7.525442
 H    -4.087273     0.867463    -7.227362
 H     1.334612     3.901248     6.620449
 O     2.082437     3.311927     6.839588
 H     2.894390     3.835297     6.706993
 H    -11.339952    -2.622179     0.092151
 O    -10.922479    -1.977932     0.664157
 H    -10.192648    -1.592180     0.148205
 H    -7.417358     2.165363     7.593358
 O    -7.893232     3.002607     7.495452
 H    -8.011147     3.355936     8.376670
 H     6.213645    -9.005112    -0.997723
 O     6.295556    -9.147288    -1.945520
 H     5.399559    -9.362890    -2.246164
 H     6.584056     5.281481    -0.874321
 O     7.224686     4.614140    -1.141146
 H     7.417853     4.096223    -0.333102
 H    -5.356174    -2.710159     5.918667
 O    -5.371807    -1.936170     6.523605
 H    -4.742734    -2.174494     7.226521
 H     2.610275     1.672260     7.460362
 O     3.079584     0.828876     7.388985
 H     2.759505     0.426675     6.554159
 H    -2.692481    -2.678153     7.125281
 O    -3.178737    -2.797902     7.969529
 H    -2.557723    -2.455789     8.629011
 H     5.775288     2.222065     6.639508
 O     5.489556     1.342700     6.385447
 H     4.605526     1.196967     6.782740
 H     1.995645    -4.226333     4.218502
 O     2.477916    -4.147618     5.054116
 H     3.179838    -4.818584     4.981566
 H     10.428623    -2.679654    -1.744140
 O     10.926996    -2.669548    -0.881715
 H     11.855572    -2.646581    -1.106275
 H     3.848234     8.285195    -3.016425
 O     3.167788     8.864986    -2.652467
 H     2.995892     8.530673    -1.753210
 H    -8.149024    -6.430002     0.533258
 O    -8.796716    -6.020598    -0.062903
 H    -8.745533    -5.066063     0.189315
 H    -0.769641     9.659822    -3.412086
 O    -1.708000     9.826900    -3.201698
 H    -1.772853     9.963609    -2.254036
 H     4.098676     4.001913    -3.818210
 O     3.544578     4.787396    -3.855713
 H     4.104700     5.567183    -3.660463
 H     5.145122     6.616243    -2.064798
 O     5.073226     6.808151    -3.020133
 H     5.855130     6.444415    -3.455222
 H    -0.399075     5.348028     6.020078
 O     0.321079     4.863708     5.592145
 H     1.010941     5.502687     5.290534
 H     3.183415     5.720078     5.069199
 O     2.418285     6.151592     4.660567
 H     2.365711     5.803971     3.756146
 H    -7.212662     9.007082    -0.298192
 O    -6.923257     8.767081    -1.188296
 H    -6.688478     7.823534    -1.142630
 H    -1.290734    -4.917010     3.702389
 O    -0.846966    -4.850333     2.825973
 H     0.075749    -5.099147     2.928334
 H     4.244052    -1.963633     6.300418
 O     4.242033    -2.135094     5.334394
 H     3.530879    -2.788576     5.174965
 H     7.128867    -6.034491     3.303192
 O     7.505818    -5.653880     4.106809
 H     7.029957    -4.813192     4.242555
 H     9.046763    -4.680678     4.016229
 O     9.677764    -3.951583     3.866695
 H     9.409633    -3.240157     4.461063
 H     3.016085     7.840747    -8.174936
 O     3.022392     7.318603    -7.374040
 H     2.150341     7.475311    -6.936800
 H    -0.582322    -1.111692     8.164032
 O    -0.787581    -1.735231     8.874779
 H    -0.074782    -2.380171     8.860864
 H     8.343048     4.516833    -2.333749
 O     9.018959     4.530045    -3.059657
 H     9.743183     5.052354    -2.714674
 H     6.356627     4.658457    -5.238532
 O     6.679187     5.071937    -4.416015
 H     7.626778     4.917822    -4.328221
 H     10.631442     2.159068    -4.208548
 O     9.897462     2.060459    -3.604098
 H     9.514265     2.953920    -3.456655
 H     3.163135    -2.213444     7.959638
 O     3.994183    -1.699979     7.951268
 H     3.714646    -0.773731     8.011109
 H    -2.434510    -2.097201    -8.705537
 O    -2.843183    -1.752564    -7.912497
 H    -2.138799    -1.285632    -7.412765
 H     5.083464     5.488032     1.457925
 O     4.880396     4.946559     2.231138
 H     3.911238     4.971522     2.331836
 H    -3.747814    -6.360943    -4.663206
 O    -2.941099    -5.848810    -4.752605
 H    -3.171173    -5.083318    -5.302959
 H    -6.581693     6.291659     4.855968
 O    -6.148842     7.111672     4.554615
 H    -6.018554     7.010010     3.585663
 H    -7.466226     4.281867     6.115241
 O    -7.209342     4.696400     5.282016
 H    -6.962640     3.958651     4.701047
 H    -7.292176     9.569041     2.324649
 O    -7.052546     9.944155     1.452545
 H    -7.523445     10.775696     1.387353
 H    -5.940229    -6.880299     1.891289
 O    -6.556460    -6.261292     1.470239
 H    -6.022606    -5.830160     0.769164
 H    -3.744039    -4.516449     7.766638
 O    -3.976385    -5.369549     7.357625
 H    -3.185121    -5.648811     6.882640
 H     9.541583     0.895442    -0.565268
 O     9.587463     1.847722    -0.768451
 H     9.893346     1.898422    -1.680109
 H    -7.942533    -4.113674     3.403086
 O    -7.015971    -4.375272     3.408379
 H    -6.888726    -5.029589     2.692111
 H     1.080581    -2.111061     6.980076
 O     1.582480    -2.843178     7.354429
 H     1.796692    -3.428508     6.611080
 H    -3.450028    -2.981199    -6.723764
 O    -3.860759    -3.597000    -6.098918
 H    -4.809775    -3.468979    -6.181488
 H    -8.719301     8.474052     3.760144
 O    -7.930107     9.010426     3.849127
 H    -7.249320     8.425567     4.243723
 H     8.007479    -2.140462    -5.122308
 O     7.082734    -1.889178    -5.146401
 H     6.618201    -2.522973    -4.566918
 H    -4.862440    -4.762988     5.933561
 O    -4.911616    -4.196871     5.138406
 H    -5.676912    -4.458003     4.606280
 N     1.105108    -10.124564    -1.731351
 H     0.393179    -10.003592    -2.447011
 H     0.681501    -9.821783    -0.854329
 H     1.285222    -11.120882    -1.651326
